426
 i =     6800, time =    13600.000, E =     -8405.9167740640
  O         8.1471791940       -0.3063425042       17.8960103642
  O        14.2028150675        0.6366624655        0.4051934584
  O         4.5999501153       13.0958960494        1.3628646165
  O         2.5809077020       16.1319435434       13.0516318402
  O        11.2418363528        3.3843262049       16.3861142068
  O        18.0685133379       15.0815894186        2.5696906226
  O        17.7504167710       11.9581321991       13.0589288840
  O        11.2734236666        0.9594184773       13.8024408620
  O        10.9419635651       13.3525931943       14.7013648294
  O        -0.5726223551       -0.4935353657        1.7505234259
  O         2.7618799943        4.5020985938       12.1500790222
  O         8.9425234002       13.2421577419       16.5207502344
  O         4.4026102926       16.1232706404        5.4583023469
  O        13.7378395401       17.0155758573       16.3865346554
  O        18.6039879861        1.1940257871        9.5328868672
  O        16.9062334604       17.2431071831        4.0901625600
  O         5.7222417180       17.8168798903       14.6425162864
  O         4.6336023991        0.3270607419        2.3470506348
  O         2.1369702822        9.6748462069       -1.0734173970
  O         8.2063811189       14.5841716501        2.2426031954
  O         0.0281783762       17.3240343971        3.5698710936
  O         1.0883561387        6.6131292207        3.2160723197
  O         8.3413173432        2.3561049392       16.9925281548
  O        10.3738574593        0.9877585000        3.2134999625
  O        12.8438547974       16.1813040643        6.8921931611
  O         0.5909736431       15.0714529601        5.3154542291
  O         4.8737307441        0.3097554003       11.0080612230
  O        18.8451859830       18.0179774176       17.1606586201
  O        17.4495081012        4.0534493000       -1.8505208223
  O         6.5760592958        1.9390513669       12.2123043664
  O         3.1636398629        9.7000984920       15.5965287524
  O         6.8286948515       13.8842974124        0.1823710693
  O         1.6188211684        4.8779305672        1.1828591479
  O         4.4249181677        7.6629935380       16.6129777434
  O        15.9186691404       16.1880000432        8.2795189422
  O         1.0517400274       16.2398260982       15.4387494277
  O         4.4835083096        0.6009667531       15.9680131093
  O        15.5960504953       18.4664494827        5.6619144466
  O        14.9553885429        5.8340806479       16.5213574415
  O         1.9097911299        4.0878253708        3.5114939913
  O        14.6558744345        8.1113768531       -1.3557865411
  O        -0.3078563841       14.3164769419       12.7159667955
  O         1.8988438687        4.4800655361       -1.4176760282
  O        -0.0503426234       11.7294567797        3.0013588469
  O         4.3909297756       -0.5029130066       -0.1608682602
  O         0.5858068149        4.6081776857       10.5817288709
  O        10.0582442490        0.5291822998       16.1432696719
  O         4.3939241155       17.2392009363       11.2144283575
  O        16.5712242496       12.7077340481        4.7304078722
  O        12.8334824790       17.0519350437        2.0062229572
  O        17.4593201858       -1.2813756269        9.7515463667
  O        16.2779396989        4.2280747382        1.5413503797
  O         3.2061023366       16.5248962074       -0.3924339729
  O        -0.3206060931        5.5444449514       -0.3738310323
  O         3.8799431751       12.4341366490       15.8023571248
  O        14.1761271723       15.0901049595       11.7816093554
  O        18.1845327732        2.1878407847        1.2372883441
  O         6.3149404341        0.8975862222        7.8611752023
  O         2.1866998019       14.4890067622        1.3647038925
  O        18.7257231845        4.6477701069        2.5770978917
  O        12.2559355580        8.0634777192       16.6651995588
  O         8.3157709808       -0.4926806932        2.3829008253
  O         6.1983515790       18.0919698545        9.3672233775
  O        10.2944135840       10.9794695132       16.8528464133
  O         3.4287560778       -1.7116447625        7.3899726419
  O         0.1936101830       11.4582991529       -1.8552556843
  O        12.5331941284       17.4747193200        4.5712597117
  O         2.8787544635        3.6163824359       14.7158720231
  O         3.1775910769        1.8245616983        0.3962777465
  O        13.7904847492       13.2224222090        4.4379425272
  O        18.5047865251        2.6067541015        5.9489734196
  O        12.0596027510       14.9652889564        0.3776046585
  O        18.8741242421       -0.2833398625       11.6420310362
  O         5.7303534229       11.4716409122       -0.3335363250
  O         8.8647213536       -0.6741360163        4.9635965249
  O        16.4806089249        0.9743023204       11.0706162264
  O        14.8727414638        0.0941301795       -2.0671810739
  O         5.8589391747       -1.3020419776        6.5130729189
  O        10.1480767119        1.3213054933       -0.6755749226
  O         4.1019937028       -0.5760148239        4.7685690209
  O        17.4775079080        5.6262266616       14.1993980737
  O        10.7030572467       17.8070989444        6.5879447170
  O         4.7457164588       13.7736278296       -1.3054964852
  O         2.5139545698       16.4890649788        3.7866256443
  O        13.6533962810        3.7425235465       -1.9215513678
  O         5.1490314603        6.6271335549       -0.3564621282
  O         5.9028505243        1.6694154008        0.4906093535
  O         1.3652726724        9.3812679747       12.8765439393
  O         8.3124605708       -0.9842697324        7.5709204195
  O         3.5161221251       14.5906035120       10.9793061396
  O         1.0930214053       16.9210211700        1.1014398828
  O         1.6459463861        7.6803321360       16.6319256524
  O         9.6602183076       13.8490131225        0.1830596926
  O        16.8345213910       10.7476494516        9.7519452525
  O        17.3779233413        1.5052130025       16.1912761318
  O         9.8017104458       15.6467286568       15.5751236695
  O        15.0315757008        1.4682116313        6.8914596872
  O        10.7895528431       17.8759768158       14.7255856015
  O         8.1623995203       17.1662587638       14.2682600129
  O         6.9631429590        7.0869114122       -2.5603100268
  O         3.7572757219       14.1246322372        3.6318392662
  O        10.1633059484       16.0276884889       12.8574919322
  O         2.0301421015       -0.7914846358       -1.5201964951
  O         3.8933555428        2.0949138111       12.5934455632
  O        15.5725689867        3.2049983923       15.7552450952
  O         3.1380570365       17.9581759098       14.8194012434
  O        17.6488300189        0.4384870181        4.5723597962
  O        17.2330919400       -0.6490889640       13.8846601768
  O         8.5619388074       10.9363623898       15.0923614523
  O        14.1377947182        5.7067723851       -0.2976764037
  O         4.9770099699        2.8262489616       10.2283329399
  O         0.3318422251       17.2199017579        8.4373312819
  O        13.1661952705       18.9061545393        6.7171110541
  O        11.7221362364        5.8007744253       -1.5013778277
  O        15.1576001345       -0.6393762833        8.4874688249
  O        16.6921241113       16.9554625880       15.8978096222
  O         8.0917395672       16.0758118086       -0.1035720303
  O         0.4002854300       13.5654284525       15.7682747079
  O         5.3548630511       10.4430216654       16.4370885913
  O         2.0875486308       16.8390949992       10.4744089747
  O         5.1549897986       16.3307251868        2.9093648031
  O         1.7533629377        2.9384448975        5.8650683949
  O         1.9307566650        1.1009326513        9.4483966493
  O         8.1795815853        4.9838047986       16.0725259399
  O        14.7890398439        7.9289154341       13.4584928794
  O         1.1207184006        8.7121364362        4.9823966761
  O         5.9468165454        3.6888415846       16.8166342787
  O        11.2236264835       14.4341252584       17.2900103370
  O        15.6509416374       15.0594088959        3.7371686552
  O        17.7217208455       11.7562611255       15.7690169109
  O         0.2920601910       10.8061551355        9.4761238901
  O        11.3538515391        5.8885283139       15.2645142224
  O         1.0483658840       18.2187820592       13.5287814344
  O        18.2234384048       12.8526372227       10.6698299134
  O         1.7802100161        7.0554274145       -0.2515752868
  O        18.4004234897        6.2109783489       16.4881176837
  O         0.4089555909        2.7511408683        8.1224744999
  O         2.6413157407        7.4475431618       14.3475732573
  O        -0.3244013089        0.8679130520       14.0254613682
  O         0.9532093476       12.0019789591       12.3942737815
  O        14.3987247945       11.9763736178        0.0942510975
  O        10.4559798228       17.6634365524        2.9707108551
  O         1.3272365125        6.8628296556       12.1459436174
  O         0.0076395111        0.6468014887       -0.5159342554
  O        18.5659418124       15.4038191055       16.7601231048
  O         0.5667986932        0.1879774887        7.3980691467
  O         7.6133406814        0.3416299888       14.0949160408
  O         9.1088280607        2.1790201765       12.8226110656
  O        18.5197048193       16.8404760759       12.9388042352
  O        16.6518723676        6.4496367542       -0.9394940679
  O        14.9324636584       -0.4967447091       14.8936257357
  O        13.8099710970       12.8699848854       17.0070205893
  O        15.8787980118        2.1549966494       -1.0481225260
  O        -0.0892238900        7.5456407894       14.3361905219
  O        17.3228357198        3.4029241103       12.9471377481
  O         1.2399725784       17.6731780699        5.8017599185
  O         2.4676211152       11.9992636025        2.6377608428
  O        13.1008205910       10.3169845455       -1.5101301216
  O        16.7826868256       15.3309020016       11.5994985905
  O         4.4093188570       17.4830070162       16.9161009109
  O        14.2614568925       16.4285048295       -0.1490309604
  O        11.9016903507       12.5315001411       -0.5319406973
  O         7.2742171203        2.8947499748       14.5591077468
  O         6.7773887112       18.0611566186       12.0481256694
  O        17.1147714306       12.0186302540        0.4213666737
  O         2.5885867476       14.5255278035       16.5246555871
  O        16.1937378966       16.6861020483        1.6659626847
  O         2.1039031004       -0.5233870213        2.6470171196
  O         0.4635147822        4.7892395969       13.3376921572
  O        15.0840229058       17.2218804819       10.6509553024
  O        16.7806348569        7.9733877023       15.2155784736
  O         7.7110967068       11.0463302724       17.6427904776
  O        16.1964458560       10.2328678707       14.0858250243
  O        16.8650257139       16.5479060257       -0.9470177080
  O         0.8794070786       11.3961099158        0.5341692901
  O        19.0674398023       15.7579273150       10.4378426887
  O        19.6662088110        5.0690169422        6.5100404405
  O        16.8057306101        0.0495218520        0.0495701521
  O        18.1180675513       -1.4350671666        6.4514007218
  O        18.1537556427       12.6062764982        8.1218697314
  O         1.0060563633       15.2051062387       -0.9739354577
  O         2.6369172746       12.3422666776       -1.1651170947
  O         5.4284255117       10.7660648473       13.8807930073
  O        11.5406203278       15.2218055133        3.4616336313
  O         6.1898274898        9.0218917299       -0.9614424428
  O         3.0405712105       11.3822952997       13.7915607438
  O        17.2051375296        2.8455966735        3.7021189887
  O        12.6127415764        0.0708106427       16.0076300788
  O        -0.8781455276        8.3591266170        3.1342808140
  O        15.7496102610       12.9948981941       14.4692752460
  O        15.3084854003       12.8347773955        2.3419845406
  O        13.3388038356        4.3253940772       14.7789918967
  O        11.4172446180        2.4368392119       11.4431416050
  O        18.9376628117        3.3178286192       15.2010291207
  O         9.7289278771        7.1084994850       16.9254125458
  O        11.0483654052        3.7259998859       13.7537599834
  O        15.4506052244       16.7683894702       13.4673284960
  O        11.7219577603       17.5535766033       -0.2197251360
  O        -0.3497432082        8.5716423039       -1.0004035890
  O         0.3541452036        1.8204436518        3.8105477997
  O         5.1341283359        4.4037648714       13.3525659393
  O        14.4039409181        9.2043385316       15.6920801999
  O        15.8295886756       14.3319064371        0.2598121727
  O         0.6445683014        1.0550769394       16.3829656262
  O         1.5554547882       14.7805618945        8.7511154306
  O        12.1706318875        3.7939196581        0.2515894207
  O         0.6671477230       11.0910927325       14.9075972382
  O         8.2968006586        5.5147011490       -0.6371805681
  O         3.0634217482        1.6451850145        4.0778686161
  O         1.5723840997        9.5069573950        2.4560767037
 Na        10.6569351958       11.1706479444       14.2522213348
 Na        18.9412078898       13.4834686776        1.0980104837
 Na        14.3895688889        2.8271577070        1.1526333912
 Na        17.4319368456       10.4135310235       -1.2706445626
 Na        18.3209032206        6.4038377425        4.9897934235
 Na        11.9091680811        0.4235190441        0.9600580119
 Na         6.0496187114        4.3571397760        0.1051788860
 Na        12.1055456111       14.6101231206       12.6933800091
 Na        -0.1788579105        5.6415038608        8.5576913520
 Na         0.6159809928       13.6493091962        6.9949945403
 Na        12.9240817088       10.1423602838        7.6489353894
 Na         5.3107552981        5.5793443389       15.2815089529
 Na        11.1685892455        3.2666825117        2.4768780499
 Na        14.4684048938        0.3717987443       10.5085108273
 Na        16.1048670102        1.4809374328       13.3934240761
 Na         0.6643580330        9.5350267524        6.9794159399
 Na        10.0585314725        3.6503836326       -0.8531653334
 Na         2.7720875712       13.7993884083       13.6010502912
 Na         7.9765100186        6.5140934855        7.2394928387
 Na        17.4245210541       14.7141595252        9.0133563887
 Na        -2.8235312312        9.5718144079       11.8043354015
 Na         9.0672109404        5.4655579502       13.8704301111
 Na         3.4301300647       15.2068930030        7.7796306995
 Na        15.1206515274        5.7327274435       12.8076652573
 Na         6.0569069565       16.9417044567        0.7517434472
 Na         3.0718954850       10.1354249170        4.3598765626
 Na         2.7626953713        3.6454881772        9.8976241935
 Na         1.3288164162        2.5588079111        0.0073225286
 Na        17.9679613989        7.6948007547        1.1036394535
 Na         1.8432176105       12.6872828889       10.0156359006
 Na         6.8894651650        9.6322310529        1.3831644327
 Na        14.4960737416       14.8110098438       16.8913050710
 Na        13.3043203819       15.6355718120        9.2645811388
 Na         7.5452533881       16.5491507239       16.7452717073
 Na         6.4514420893       -1.0151595051        3.4861469235
 Na        12.2812597801        1.5406369628       -1.7547682107
 Na         6.0003891363        0.8860010296       -1.6893911557
 Na         2.5644925243        6.4828131374        5.6488481077
 Na        14.9876309457       12.9036099798       10.9786037370
 Na         6.2084068664       14.2097511804        2.8070927142
 Na        14.7120687177       18.3913148670        2.5653293552
 Na         3.6359813964        7.7868575438        1.1131790122
 Na        -0.7229940702       13.6194991295        4.2627529392
 Na         2.6290018160        1.1059119585       14.7466862378
 Na         3.7303114810        0.1963196506        8.6353480989
 Na        13.6181120180       12.2000817256       14.9241754203
 Na        15.3616342531       15.8330617587        6.2367558288
 Na        16.9028115198        2.0878990113        7.7922222337
 Na         9.3002881727       -1.3248532257        0.2818469004
 Na         5.1236603860        1.7303449119        5.8252228440
 Na         8.1263898482        1.4843041231        1.0257441346
 Na         3.6345175866        3.0996616168       17.2441914582
 Na        17.9620429848        3.6237474159       10.7190164690
 Na        12.6368562189       13.3069862388        2.4439164075
 Na        11.4285484505       16.9953322593       -2.3598209965
 Na         7.1335727271        9.1353711601       15.0197053672
 Na         1.8034662399       -0.3325912526       11.0527253212
 Na        17.2597375988       10.7601680591        3.1078506399
 Na        17.4479009500       14.8573259078       14.8012809729
 Na         1.2240875172        4.7853978124       15.7747198028
 Si        -0.5281231058       12.8245276987       12.1806494584
 Si         3.4635924979       17.9513172014       -1.1651581308
 Si         5.5217691081       13.0695991919       -0.0276659216
 Si        15.0539751758        6.5444310178       -1.3625000089
 Si         0.6421831870        8.4473185532        3.4907163084
 Si        11.7508565792       16.8201879007        3.3014131235
 Si         5.6177053872       18.2110876540       10.8924579481
 Si         1.5141723077       11.1797089504       -0.9186240375
 Si         1.0532860933       16.4281043828        4.6833406634
 Si         3.4464968566       13.2901483036       17.1721668540
 Si        15.2896241724       16.1206682460       11.9291592204
 Si        18.2331488842       11.6023623632        9.4125945216
 Si        18.2510629024        0.6185414104        0.6684596599
 Si         8.8612215768       11.5243403452       16.5109173658
 Si         6.7001504274       -0.6450885327        7.8469866435
 Si        15.7496284524       15.9760509887        0.2421093264
 Si         0.5765052884        1.2367758818        8.6881847869
 Si         0.5363083124       -0.1657952923       -1.8490303446
 Si        18.0133662872        6.9366451441       15.0611716165
 Si         9.5061800325       -0.3855137799        3.3901079690
 Si        15.3091673248       13.3948549119        3.9510099375
 Si         5.6594873362        7.5418053846       -1.5747449275
 Si         4.4935980851        0.9793115237        0.7739954414
 Si        10.8139510637        2.2897523074       12.9124602656
 Si         5.0999352439        1.8358088591       11.4891295525
 Si         3.2372723461       16.1065770181       11.4199224742
 Si        16.8447847801       15.9504548185        2.9945940730
 Si         1.3568190734        5.4586291481       -0.2862000433
 Si        11.1142916889       13.9970310211       -0.5451431658
 Si         1.8688392963       15.7478202011        0.2965910715
 Si        13.3592659324       12.0496957304       -1.1251774030
 Si         1.1375127087        8.2882895149       -1.2524016266
 Si        17.9009731706        5.5834980607       -1.4828699395
 Si         8.2878230580       14.6817113420        0.5828786130
 Si         0.9505625906       15.0308527189       16.6862360120
 Si        17.7894123818       16.7580236760       17.1078354277
 Si         3.4005665979        0.1583765372        3.4319628620
 Si         7.0161138548       18.2245586797       13.6845945592
 Si        17.7641218671        0.1953861305       10.5625835546
 Si        14.0518767465       -0.8048421593       16.2513857157
 Si         3.2026161357       13.4327692988        2.2104663058
 Si        12.8288158911        4.7298079845       -0.7872111092
 Si         7.6686892292        1.8627367369       13.3967409845
 Si         3.9902866193       15.7421955884        3.8306742777
 Si         9.1518317859        0.9118262720       17.4081092593
 Si         8.3431450242        6.1287807597       -2.1117646501
 Si        12.3195027675       17.5155004917        6.2316186721
 Si        16.1147877695       17.7900316768       14.5455997357
 Si        17.1683462344       -1.0243769596        5.1761891523
 Si         1.7568284836        2.5815275748        4.2431987728
 Si         9.7413257255       16.6645888274       14.2321170058
 Si         4.4967533641       -0.9394422016       15.5801037311
 Si         7.4178872924        3.4315121354       16.1797880494
 Si        14.3398894959        4.2826579670       16.0923039718
 Si         9.0609198439       -1.6048067221        6.2794827446
 Si        18.3694434267       15.6709852895       11.9257383875
 Si        15.4267613977        0.6457053608       -0.6498617425
 Si        -0.1034189168       12.0098323334       16.0011321926
 Si         0.7181350304       17.9666358429        2.2597860721
 Si        15.5482195547        8.7958768948       14.5010623185
 Si        11.6878903135        4.2636322896       15.1695885214
 Si        18.2852332710        1.8375156121        4.5253676909
 Si        18.3221690978        4.2500352077       13.7883395743
 Si        16.0389302209       17.4893485896        9.2452849403
 Si         1.2051132798        5.1621832801       11.9447976593
 Si         1.5445687756       10.9328141480       13.5350985842
 Si         0.4101689556        3.4526763481        6.5956938685
 Si        18.8294913656        1.7240529401       15.3751076870
 Si         1.2746703779        7.8038508259       13.4875518659
 Si         4.1920390711       10.9349049900       15.0095727483
 Si        16.6323498205        2.7005190720       17.0134164027
 Si         0.3050093443       -1.3621247811        7.0335680418
 Si        17.5708138680        3.5172090353        2.1861108327
 Si        14.7391484795       -0.1494009692        6.9519649820
 Si         1.8823724384       17.0695662299       14.2889742394
 Si         4.3366524118       -1.7027684099        6.0629639466
 Si        10.2204587724       14.0835877972       15.9297839817
 Si         6.1494713315       10.5311532675       -1.6015692608
 Si        -0.5837214409       18.5639059927       13.2416727468
 Si         0.9487416752        5.1211628173        2.6550831145
 Si        12.6697855533       16.5360893922        0.4622256374
 Si         2.9945229799        8.1483270572       15.8733878443
 Si        16.7834974321       11.7910307127       14.3684235124
 Si        15.7378597027       12.7767576711        0.7664895917
 Si        11.1544375377        0.0168421505       15.1355790400
 Si         3.6526878205        3.7712358818       13.3334333091
 Si        11.2984955994        6.7448480398       16.6659679556
 Si        13.5905293821        8.9791555696       17.0383370088
 Si         1.0888978333       11.1102927359        2.1708357396
 Si         0.9824238972       16.0876237787        9.4389852710
 Se         8.0224864191        4.9357616875        9.6557595745
 Se         4.7593199919        7.5005741385        3.8679324513
 Se         5.5805685781        4.4897010129        6.4807425381
 Se        10.8481939972        6.7338922702       11.8998279676
 Se         8.3704836866        4.2339077753        2.6213987888
 Se        11.1502589527        1.6360882765        7.8648692947
 Se         3.8540064409       11.0534292441       10.8371981076
 Se         8.9405804198        7.6612775289        4.7621926901
 Se         2.0880407123        7.5926071929        8.5423986178
 Se         8.3670187262       10.9981322425       11.4897817470
 Se        12.4592772190        5.8472398244        3.1656605128
 Se        11.6000619944        5.5141872304        7.7098600306
 Se        13.7884657967        8.1911799236        9.6573043160
 Se         6.5930450712        7.2351472240       12.5830311660
 Se        13.4542549843        1.7680692115        3.7547254187
 Se        15.1781204736        3.6333229191        9.7510065670
 Se         6.9877594329       11.2134188885        4.2274937251
 Se         3.0835766504       11.9396184931        6.5457174753
 Se         6.5696034375       12.9030591982        8.4362054002
 Se        10.0912604787        9.0033529338        1.5258306479
 Se         6.0049960409        8.4741727066        7.9797458729
 Se        10.1865036105        9.8723836619        8.4774495296
 Se         6.6305319883       14.5137050151       13.0614410713
 Se        15.2569916850        8.5444785537        2.3454225783
 Se        12.7343491632        9.3517481990        5.1445499368
 Se        17.6018805106        7.2282922531       10.6104226961
 Se        12.8167616977       11.2288989953       12.2101983602
 Se        15.6662058341        5.6961515284        6.2642272810
 Se         8.0714098374       15.7278126766        5.8281681253
 Se        10.4839202664       14.2916104928        9.8503674153
 Se        10.4030720080       12.7064523110        5.8003868510
 Se        14.2392518311       12.7161559122        8.3159271081
 Se        17.0838387748        9.3673150160        6.4102278778
 Cd         6.2875040010        8.8212003195        5.4610960013
 Cd         6.4986418435        5.3721290418        4.2214816138
 Cd         6.4687131232        3.0373018674        8.4227599635
 Cd         6.1014813483        4.8008753521       11.4576043084
 Cd        11.3187503462        1.7028283228        5.2808761707
 Cd        10.2367773773        3.2795746514        9.7621418965
 Cd         0.2891254092        8.7038086229       10.3069332044
 Cd         9.7064924932       10.1469601587        5.5083994563
 Cd         3.7542329769        9.9517800849        8.4276017267
 Cd         5.3235954122        9.3510285349       11.8983711003
 Cd         9.1701123503        6.4379730657        1.7259094394
 Cd        14.7794698691        3.5683463406        5.0114698216
 Cd        11.1858317681        7.4713379239        9.2404608077
 Cd         7.1549288255       12.0662865234       13.7419435147
 Cd        14.9384586702        5.8764397596        2.1820739471
 Cd        13.4790500555        2.6547680740        8.1331150185
 Cd         5.5795036754       12.2030501931        6.1593482513
 Cd         5.3808047812       13.1878530219       11.1325028941
 Cd         8.8052508725       14.7372724395       11.7076032813
 Cd        10.6018345560       10.0176950224       -0.6778797185
 Cd        11.5962883962        6.8305219625        5.4835914056
 Cd         8.9454427803        8.4171225109       11.6580461528
 Cd        11.0530273183       11.6860590667       10.3387729991
 Cd        12.5187615380        8.5573822379        2.5663271231
 Cd        15.2103930518        8.1445733596        5.1666439574
 Cd        12.9252426233        8.7322970760       12.1615073727
 Cd        16.4276610649        8.6771959609        8.7398021576
 Cd        14.1401341010        5.8288928994        8.7287711891
 Cd         9.5062233886       14.6236855408        3.8947771542
 Cd         8.7576996912       13.9078296228        7.6736296892
 Cd        12.6688451030       13.8937472866        6.2576828979
 Cd         7.5554820680       10.3114168100        9.0001618179
 Cd        16.2827059908       11.9415351701        6.8018730003
