426
 i =     9100, time =    18200.000, E =     -8405.8587486699
  O         7.9689113298        0.0521559250       18.0477859533
  O        14.1720475562        0.9390707388        0.7759870340
  O         4.3067058270       13.7714146380        1.2617163733
  O         2.4681972008       16.3940187066       13.1823658607
  O        11.0939494514        3.6117524572       16.4198825984
  O        18.0041513969       15.4822386733        2.5787892224
  O        17.8417696614       11.8498177960       13.1513765561
  O        11.3130391670        1.3822523520       14.1081823969
  O        11.0107157819       13.6154896496       14.7442215290
  O        -0.5071061426        0.0344312158        1.9382206678
  O         2.5444785197        4.8904970564       12.0925108013
  O         8.8750714680       13.4613433829       16.4361861598
  O         4.4708573288       16.5576633795        5.5676269059
  O        13.2634024116       17.0754803944       16.4186094677
  O        18.2272554265        1.4599386531        9.6934968832
  O        16.5978274651       17.5624521278        4.1406251347
  O         5.9041290442       18.2116453998       15.0876921797
  O         4.5081087029        0.8288851719        2.5959903378
  O         2.0580118805        9.9832611529       -0.4227011785
  O         8.1558639014       15.3119612468        2.2025423744
  O        -0.0321162576       17.5502783473        3.6691262131
  O         1.0074519016        6.9234044031        3.0242811738
  O         7.9672732399        2.5716831025       17.2705107888
  O         9.7617132436        1.3880329527        3.6440396916
  O        12.6478950334       16.0585443716        6.9941687221
  O         0.4312455651       15.4210566693        5.3620693797
  O         4.6405467138        0.5270559117       11.2498918139
  O        18.7045417134       18.2718697600       17.4315204738
  O        17.2721695758        4.1047078192       -1.4262049019
  O         6.5135847578        2.3431494980       12.2488945604
  O         3.1208594219       10.1554132578       16.0291532538
  O         6.8007068170       13.8662375816        0.5973441052
  O         1.3717799771        4.8879214985        1.2060777468
  O         4.4160788131        7.8539167138       16.8376655236
  O        15.6574780466       16.5436227668        8.5098800280
  O         1.1558728503       16.2942273752       15.6077725800
  O         4.3075132842        0.9072450105       16.0573546583
  O        15.3782638556       18.6629061488        6.1904864927
  O        14.4727753462        6.0776589703       16.5759439727
  O         1.4664523214        4.3185079412        3.7575676503
  O        14.3548521560        8.2692488040       -1.3811379058
  O        -0.6349138636       14.3463399281       12.7735690705
  O         1.5559891100        5.0544536349       -1.5344641999
  O        -0.0249369051       12.0039394551        3.3822543340
  O         4.1650407777       -0.0447461826        0.1118722225
  O         0.3172011118        5.0490639067       10.7381665758
  O         9.9474248643        0.8387462009       16.3535527274
  O         4.3375867554       17.3475879329       11.2221168593
  O        16.4521089947       12.7722521540        4.4812270830
  O        12.8654721767       17.2211516563        2.1093358894
  O        17.0937116906       -0.9328538137        9.8704095420
  O        15.9715898005        4.3222427769        1.8048077916
  O         3.1588667575       16.9138198528       -0.0545349626
  O        -0.6781437501        5.7315984252       -0.0883875224
  O         3.8262451147       12.7864811440       15.7921185063
  O        13.8831338129       15.2157978227       11.9973457802
  O        17.9223688090        2.5151417045        1.2804570758
  O         6.1582521250        1.2009535549        8.1735823127
  O         1.9198577171       14.8689931379        1.5053266167
  O        18.4939972486        4.8358585428        2.6769529720
  O        11.9383855308        8.3723007450       16.7631929861
  O         8.0470502704       -0.5094465666        2.4090455115
  O         6.1374641064       18.2793459832        9.5289381787
  O        10.0603632950       11.0902468812       16.9058302248
  O         3.2709774670       -1.2510488410        7.4024921188
  O         0.2304550349       11.6625881075       -1.7272535456
  O        12.4239326658       17.5206095738        4.7955425044
  O         2.9995759976        4.0151113361       14.7580423272
  O         3.2302299063        2.2372801739        0.4632605765
  O        13.8178658365       13.5240645880        4.4889594684
  O        18.0259870258        3.1288195416        5.9310569076
  O        11.8718270064       15.3712230896        0.3300451766
  O        18.7382034153       -0.2264874212       11.7174860739
  O         5.5557666938       11.7189262554       -0.0931236499
  O         8.5227990136       -0.5711514219        5.0146240095
  O        16.2425041287        1.1254993957       11.4466027757
  O        14.6207127443       -0.2909379969       -1.5601048038
  O         5.7678173463       -0.8231493551        6.6302893843
  O         9.9231103863        1.5945631374       -0.4359534430
  O         3.9967706406       -0.2902312230        4.8244144064
  O        17.2131152459        5.8298776333       14.5500734065
  O        10.5082820362       17.9184523314        6.5829596861
  O         4.8879539765       13.9197442708       -1.3444864301
  O         2.3575956327       16.5797620762        4.0677151967
  O        13.4706708629        3.9851828314       -1.7499435733
  O         5.0731796347        6.6519670461       -0.2524330855
  O         5.8550132333        2.0531899090        0.6103480999
  O         1.2808152045        9.5884320149       13.2357829026
  O         8.1134754892       -0.7017853584        7.7064809710
  O         3.4050931700       14.7829136970       11.3505793484
  O         1.0487793010       17.4140572705        1.1965625649
  O         1.6271869062        8.3896529500       17.0463041497
  O         9.4796269967       14.3631824105       -0.0884797071
  O        16.6188390429       11.3380483239        9.8194509088
  O        17.4973539655        1.7854783679       16.4505873179
  O         9.8066285931       15.8601234415       15.3340814244
  O        14.4349575181        1.5966392285        7.0274569204
  O        10.7341445302       18.1946561336       14.6280109468
  O         8.2350198239       17.4293258854       14.0791606836
  O         6.9713155654        7.2228924004       -2.3084263312
  O         3.7819868255       14.4964712536        3.6205440626
  O        10.3120556843       16.3076940860       12.6219758463
  O         1.8859075019       -0.4389239161       -1.3264072920
  O         3.7693873388        2.5127520807       12.7638604124
  O        15.5381244312        3.5208382066       15.9621005139
  O         3.0546680228       18.2382560317       14.9696431073
  O        17.4139937030        0.6742824285        5.0536627886
  O        17.2176409242       -0.6402586601       14.1451979031
  O         8.2979154995       11.4022457112       15.0300597493
  O        13.9602456832        5.9246802888       -0.0924726460
  O         4.7593610247        3.0907914355       10.3009815672
  O         0.2887960218       17.4337671227        8.5425492608
  O        12.9067481864       18.6322487950        7.0347660695
  O        11.6223783265        6.0801352077       -1.3104916669
  O        14.7637955897       -0.2594920507        8.7453529083
  O        16.6179828831       17.2014416343       16.1180498387
  O         7.6269148414       16.3996768586       -0.1032627630
  O         0.5813995141       13.7957751675       16.0576688464
  O         5.3891999441       10.8483295116       16.6028706983
  O         1.8969038938       17.0283346733       10.6597235803
  O         5.0040538783       16.7165663659        3.0816604275
  O         1.3274254601        3.1613125151        6.0718373391
  O         1.6108336068        1.7261870985        9.5587557534
  O         8.3264404753        4.9678778089       16.2034603714
  O        14.9607200454        8.5311882515       13.3491709462
  O         1.1034333592        8.6895330226        5.1402099530
  O         5.7759040220        3.9198531642       16.8456426064
  O        11.0098875651       14.7561006267       17.2567190498
  O        15.6674507401       15.2395297291        3.9814421356
  O        17.7455766966       12.0512793384       15.8274463641
  O         0.0133437953       11.0225720680        9.1329214928
  O        11.1661451724        6.1397734374       15.3920704645
  O         0.8081618798       18.3642880024       13.9479861882
  O        18.5585721240       12.9047454867       10.6819417344
  O         1.5261862494        7.2383383054        0.0386368415
  O        18.3237646374        6.3396454758       16.7089732158
  O        -0.1472752192        3.1313420898        8.2198359600
  O         2.5777598905        7.7320930184       14.7427994220
  O        -0.5696306654        1.1103105191       14.0236851408
  O         0.9432734252       12.2656611354       12.6190198192
  O        14.2332196976       12.1305541127        0.0195921166
  O        10.6850712656       18.3153919711        3.0772874695
  O         1.2155162595        7.0667386040       12.5485563134
  O        -0.0476568543        0.9962842048       -0.3370499420
  O        18.5485802191       15.5986937261       17.0174365756
  O         0.1009033858        0.5240671715        7.6445414883
  O         7.6180529463        0.6750974544       14.3021895039
  O         9.0452981134        2.4562784428       12.8676588833
  O        18.4687586789       16.8865530348       13.0313878634
  O        16.3517909464        6.5678564011       -0.8913622774
  O        14.8203613108       -0.3813636119       15.2199861286
  O        13.5157449596       12.9713586276       16.8908397467
  O        15.6020973356        2.1334529954       -1.1570298305
  O        -0.1410864400        7.6541682361       14.6549091997
  O        17.0118996000        3.7890921732       12.9212814231
  O         1.0241104407       18.1513406941        5.9227713177
  O         2.5209205626       12.4138223899        2.5839712485
  O        12.7594785365       10.5038657486       -1.3696941674
  O        16.6014402534       15.4877536215       11.6145985529
  O         4.4570598665       17.9113079461       17.2915512935
  O        14.0258750356       16.6518652610       -0.1929637190
  O        11.6727434092       12.8286046014       -0.4226656139
  O         7.3536428816        3.1577294128       14.7088362963
  O         6.5227521222       18.5684194638       12.3221238518
  O        16.9640722329       12.3801584165        0.5667990263
  O         2.7372741246       14.8319757575       16.9358205479
  O        15.7505011895       16.8727654575        1.7893847290
  O         1.9108722719       -0.1308894429        2.9243759328
  O         0.0680382294        5.0584566120       13.2971677025
  O        14.9268852317       17.4602492019       10.9174296758
  O        16.6220843975        8.3219631822       15.5719227184
  O         7.6639430498       11.3643135861       17.7252376244
  O        16.1017294123       10.5744761681       14.3889785603
  O        16.6762404273       16.6016971244       -0.7261005049
  O         0.8253014170       11.7319413270        0.8126128309
  O        18.8356038687       15.8921998604       10.4793991558
  O        19.3603848348        5.4830001979        6.7970703547
  O        16.7734029014        0.1995557589        0.3605192626
  O        17.8134258431       -1.2686126576        6.6927709308
  O        17.8953489921       13.0532124196        8.1413028443
  O         0.9667380421       15.5153759553       -0.7905701309
  O         2.5622282374       12.5056268823       -1.1124044766
  O         5.3955349531       10.8197502212       14.1728885110
  O        11.2248751658       15.5174362528        3.4947191541
  O         5.9107131563        9.2399778681       -0.8167314890
  O         3.0541718908       11.4606550772       13.8415511361
  O        16.8801006239        2.8196178178        3.6229851096
  O        12.4493318945        0.1357005905       16.2144569019
  O        -1.0758159970        8.6020013646        3.2358491753
  O        15.7315611783       13.2418056045       14.4233381695
  O        15.0555482805       13.1464287685        2.2563516667
  O        13.2191897146        4.5322504959       14.8735532939
  O        11.3274075159        2.5182703035       11.5825804131
  O        18.7252714392        3.5464462915       15.0966591490
  O         9.4956968088        7.3819285187       16.9823973152
  O        10.8379499025        4.0232162209       13.7703234979
  O        15.4235828171       16.9945452380       13.5593774255
  O        11.6597455505       18.0335578066       -0.3020813874
  O        -0.4415227147        8.9166736010       -0.5795126641
  O         0.1187047369        1.9847347813        4.0294547303
  O         4.9718313868        4.9452668473       13.1513791587
  O        14.0984549570        9.5459863927       15.7045376354
  O        15.4558850909       14.6177574312        0.1915349880
  O         0.5073885552        1.1733593822       16.4523678427
  O         1.3792904233       15.1197034315        8.8774610507
  O        11.9454745529        3.9790667867        0.4007704913
  O         0.5912745386       11.2256264058       15.0456522583
  O         8.3644531509        5.5932470761       -0.5733244653
  O         2.7539727324        1.9321326657        4.1859394162
  O         1.3785981398        9.7155658175        2.6742027697
 Na        10.5197598849       11.4396782574       14.2134376144
 Na        18.6900068589       14.0294456906        0.8958691885
 Na        14.2038888849        3.1067854936        1.2399370824
 Na        17.5261824808       10.7735907513       -0.7168340133
 Na        18.1894140014        7.1019333534        5.2523607309
 Na        11.6908647097        0.5199301734        1.0878607210
 Na         6.4585670198        4.3303006233        0.1198470808
 Na        11.9922666492       14.9252068144       13.2582212720
 Na        -0.3001474794        6.1266213605        8.8969223065
 Na         0.3861717354       13.9175891939        6.9509873592
 Na        13.1362126509       10.2385996627        8.0755124583
 Na         4.9608881683        5.5066307740       15.3122796833
 Na        11.0503699296        3.1703191647        2.2877596517
 Na        14.1141707290        1.3565150931       10.9472952043
 Na        16.1457108935        1.9004863069       13.7418350514
 Na         0.6058579941       10.1310093214        6.9220512652
 Na         9.9695564261        3.8601301163       -1.1317948447
 Na         3.3725573423       13.9618218000       13.9004205628
 Na         8.2277501321        6.5368363400        7.4509458782
 Na        17.1777778559       15.0694166485        8.8873744200
 Na        -3.0747442224       10.3461044950       11.9140346116
 Na         9.0263571211        5.7460801611       13.8864399151
 Na         3.1306561859       15.9627416299        7.8622357175
 Na        15.7412986200        6.1192323934       12.4586711779
 Na         5.7904141455       17.6191510676        1.0726231577
 Na         3.0295855606        9.9024698254        4.5434236194
 Na         2.5085195690        3.8844005589        9.9700827545
 Na         1.1076080680        2.6117468289        0.5610653004
 Na        17.8551084183        7.8414118291        0.9732677915
 Na         1.5594418930       12.8978307657       10.1160327327
 Na         6.2784624510        9.6032998996        1.7611099338
 Na        14.3330147536       15.1314644435       17.0385589489
 Na        13.2298307329       16.0263944613        9.2953716054
 Na         6.9256996282       17.1242085863       17.1371286862
 Na         6.5303594490       -1.3966311420        4.1327787779
 Na        12.1475979419        1.8203053871       -1.6900486425
 Na         5.9330663016        1.1572600110       -1.7635755300
 Na         2.1672634608        6.8568196156        6.0293794856
 Na        14.8029514673       13.1395454152       10.9301474124
 Na         6.1172808328       14.5485249701        2.9097626676
 Na        14.8138103315       18.9642747213        2.8057992119
 Na         3.5776721963        7.0634533133        1.3476064132
 Na        -0.8805004240       13.9733757779        4.1765269972
 Na         2.4006822353        1.4218864417       15.1502564248
 Na         3.4961325998        0.7798590065        8.4611770900
 Na        13.6522181849       12.6113726479       14.6894624150
 Na        14.9838002973       16.1614520049        6.4177726633
 Na        16.5116504675        2.2301474026        7.9309363903
 Na         9.1493258426       -1.3138928133        0.3667952266
 Na         5.3998826176        2.1620618565        5.2624897370
 Na         7.7518464509        1.5942571466        1.5227291513
 Na         3.7021395815        3.6136146131       17.7413194226
 Na        18.0971363635        3.4391788280       10.9261908029
 Na        12.5099533943       13.9226420040        2.3665038054
 Na        11.0673995759       16.9838800883       -2.2408340777
 Na         6.9629834266        9.6246072579       15.2041847291
 Na         1.9002811145        0.2801307649       11.3599093031
 Na        17.2304599950       11.0648107823        3.3104628228
 Na        17.5197322251       14.9231444833       14.9566345310
 Na         1.2098958008        5.2892422988       15.5389857010
 Si        -0.5696142363       12.8103941860       12.2630062951
 Si         3.3752190481       18.3046874491       -0.8652283852
 Si         5.4191849543       13.3929447300        0.0993619484
 Si        14.7632637762        6.7177593521       -1.2869930005
 Si         0.5386089752        8.5929431911        3.5469775606
 Si        11.7263928176       17.0461713808        3.3654838804
 Si         5.4559034469       18.4838187054       11.0490608349
 Si         1.4669496359       11.4320529822       -0.6624001741
 Si         0.9076173147       16.7546864896        4.8679726095
 Si         3.4705891501       13.4667619192       17.2458986008
 Si        15.1177607256       16.2061191093       12.0966601674
 Si        18.0210628924       11.9186128637        9.3189337137
 Si        18.1136037132        0.8980403779        0.8211545545
 Si         8.7197975168       11.8618355103       16.5181107047
 Si         6.5162704700       -0.3279257173        8.0210509672
 Si        15.5239112710       16.2113867515        0.3597432334
 Si         0.2260782470        1.6417131164        8.8159255351
 Si         0.4115960537        0.0857530805       -1.7217012909
 Si        17.8671048377        7.1909032469       15.3522348400
 Si         9.2104002134       -0.1731894334        3.4982586424
 Si        15.2155131933       13.6015062876        3.8439787746
 Si         5.5552255849        7.6793085345       -1.3427521902
 Si         4.4359463148        1.4204511457        0.8996910541
 Si        10.7230562055        2.5342314348       13.0739443784
 Si         4.9531857666        2.1608292646       11.6352022119
 Si         3.0712771711       16.3092624330       11.5953103751
 Si        16.6643953601       16.1567944157        3.0148516081
 Si         0.9982436973        5.6806828415       -0.2379789536
 Si        10.9858191416       14.3060075062       -0.5448121596
 Si         1.7836939268       16.1495181225        0.4783314786
 Si        13.0828205940       12.1846955529       -1.1864368124
 Si         1.0711385713        8.6459160656       -0.7602774627
 Si        17.6359960165        5.7192328071       -1.3231020744
 Si         8.1182703841       15.0689707738        0.5554317052
 Si         1.0199884855       15.2280060847       16.9188341516
 Si        17.6675210893       16.9137278424       17.3629517181
 Si         3.2531406924        0.4890170696        3.6018717111
 Si         7.0685463672       18.5562185605       13.8992636244
 Si        17.4370076047        0.3400141896       10.8014546287
 Si        13.7813626799       -0.8187695986       16.4364811546
 Si         3.0506324505       13.9117845503        2.2561530496
 Si        12.6468312514        5.0006381430       -0.5809836685
 Si         7.5969925529        2.1357465420       13.4681899497
 Si         3.9342608326       16.1070869021        4.0403402446
 Si         8.9098102949        1.2048717316       17.6759379887
 Si         8.2384338098        6.2290686774       -2.0341410545
 Si        12.0880277987       17.4316956427        6.4074290666
 Si        15.9925005298       17.9288968357       14.7589869955
 Si        16.9100776941       -0.8351295468        5.4435524084
 Si         1.4741267060        2.8242422369        4.4957584048
 Si         9.8030867184       16.9113897874       14.0519909651
 Si         4.3782068281       -0.6418422969       15.7849709476
 Si         7.2231229419        3.6321885363       16.2790866354
 Si        14.1746083386        4.5107904069       16.2305205121
 Si         8.8358491233       -1.4016906244        6.4508989398
 Si        18.1695582631       15.7267291867       12.0136510388
 Si        15.2520291693        0.7112935323       -0.4069244542
 Si        -0.0262608225       12.2317837240       16.1273288998
 Si         0.6231516818       18.3368967353        2.4649663984
 Si        15.4016372590        9.1443127138       14.7282442522
 Si        11.5485338247        4.4670840370       15.1371878000
 Si        17.9697992829        2.1193524156        4.6180608997
 Si        18.0245653430        4.5292116854       13.8720086014
 Si        15.6748168714       17.8738306878        9.4296554668
 Si         1.0176629162        5.5379797996       12.0705782497
 Si         1.5220922944       11.1493348575       13.6744712658
 Si        -0.0747637233        3.9040664003        6.7311862600
 Si        18.7350756317        1.8809953239       15.3827483903
 Si         1.2310745129        8.0590320207       13.8347120053
 Si         4.2102193312       11.2172309921       15.2689683496
 Si        16.5042937732        2.9443251807       17.1854250693
 Si        -0.0128696501       -1.0446444145        7.1552871597
 Si        17.3324274844        3.7133903219        2.2890391076
 Si        14.3199065108        0.0537568737        7.1863425815
 Si         1.8630154162       17.2140415282       14.4503945458
 Si         4.2538686364       -1.2815800454        6.1853742173
 Si        10.2019897267       14.2948823683       15.8685258839
 Si         6.0606354725       10.8111930083       -1.3586290601
 Si        -0.7178985166       18.6439363387       13.3726079482
 Si         0.7233858217        5.3139679731        2.6803436400
 Si        12.5707666477       16.9033280272        0.4805532507
 Si         3.0329359048        8.5291838024       16.2265925782
 Si        16.7715683735       12.0120942208       14.4893322455
 Si        15.5272288957       13.0218742082        0.7155683663
 Si        11.0760263047        0.2720218434       15.3089184689
 Si         3.5601168758        4.1930420390       13.3161804125
 Si        11.0466475776        6.9198348428       16.7926095324
 Si        13.2768934613        9.2263247059       17.0970555173
 Si         1.1548239367       11.4568840582        2.4189524725
 Si         0.7610111650       16.3245026648        9.6189982455
 Se         8.1491461921        4.9293311388        9.8849436646
 Se         4.8044531109        7.8171375469        3.6958992349
 Se         5.0875358264        4.5799393826        6.5056490588
 Se        10.9877325610        6.9087620316       11.9254722732
 Se         8.0892989513        4.6012855345        2.9782660836
 Se        10.9035420438        1.5277606123        8.1026551205
 Se         3.8668581378       11.1697324928       10.7835164740
 Se         8.8567550439        7.9093363711        4.9885078567
 Se         2.2052695995        7.9502703285        8.7398216480
 Se         8.2325684015       11.0076511085       11.6057349969
 Se        12.3621913142        5.6658180073        3.3964760862
 Se        11.1988997331        5.1573615394        7.6840309542
 Se        13.9567724720        7.9488234337        9.6567341658
 Se         6.6478003927        7.5745917934       13.0207251489
 Se        13.0775136281        1.8176291791        3.9387451683
 Se        14.9420218607        3.9218880021        9.8407182213
 Se         6.5614337211       11.6733875850        4.0292607292
 Se         2.9012861856       12.2409900210        6.8712341868
 Se         6.6309485394       13.0758991721        8.6475222899
 Se         9.9288772752        8.9930729993        1.4999442233
 Se         6.0754369318        8.7553483511        7.8485794887
 Se        10.1075137869        9.6050332497        8.6050286628
 Se         6.5728186723       14.8664535099       12.6886390971
 Se        15.0600124109        8.7629149596        2.0532326823
 Se        12.7470595409        9.3664788300        5.1693183106
 Se        17.7321834772        7.9087548476       10.8964033271
 Se        12.4680603129       11.2437373254       12.2147614049
 Se        15.6303066743        5.9672915109        5.6099884813
 Se         7.9051314500       15.9079760291        6.0370091910
 Se        10.6799974156       14.2955258539        9.6783233105
 Se        10.2284183515       12.7495663193        5.5490883413
 Se        14.1697550326       13.0124293853        8.1724212844
 Se        17.0609249697        9.6950799421        6.3703912287
 Cd         6.4317869305        9.3835306285        5.3722427183
 Cd         6.3626534772        5.9054544899        4.5518487081
 Cd         6.2835095852        3.3301542223        8.5017381486
 Cd         6.1354266214        5.4162199510       11.5323996602
 Cd        10.8819753404        1.9769534495        5.5499075204
 Cd         9.8684126637        3.0392114040        9.9995524209
 Cd         0.4625291054        9.1538577835       10.2755664257
 Cd        10.0558889559       10.1057050652        5.8592752255
 Cd         3.7202321965       10.0421882578        8.1102471482
 Cd         5.2201228559        9.6542839159       12.1794354319
 Cd         9.0111940051        6.4890449008        1.4693010539
 Cd        14.2179136358        3.9068174660        4.5968912937
 Cd        11.2576606044        7.2403604917        9.1353978595
 Cd         7.0336870150       12.3519732403       13.5015800738
 Cd        14.8993913315        6.0915611962        2.5703908416
 Cd        13.2073598272        3.0160936665        8.2452935618
 Cd         5.4018057724       12.5187960795        6.1998817263
 Cd         5.1571716522       13.4290982546       10.9646090921
 Cd         8.9275807987       15.0506430275       11.4592428732
 Cd        10.2602088157       10.1120672494       -0.7554969043
 Cd        11.5462799704        6.9287593015        5.5041507566
 Cd         8.9595092425        8.5120419247       11.9878917488
 Cd        10.6046704917       11.7868173936       10.3358387897
 Cd        12.4500892691        8.3514083467        2.4326045631
 Cd        15.3602869567        8.7223086449        4.6528785278
 Cd        12.9561508658        8.6204696335       12.2846563667
 Cd        16.4022682243        9.0326798463        8.9307350441
 Cd        14.8224417593        5.9830640457        8.1422424440
 Cd         9.2524715062       14.8373556531        3.9737563385
 Cd         8.9929511848       13.9414271979        7.6370389512
 Cd        12.6073136763       13.8551550673        6.2584011111
 Cd         7.5469059866       10.5458304935        8.9865057620
 Cd        16.2650354963       12.1986433651        6.8338520561
