426
 i =     5200, time =    10400.000, E =     -8405.8771288442
  O         8.3284349312       -0.3696946850       17.9431881331
  O        14.2486445349        0.8679078866        0.7050633696
  O         4.7757008916       13.0813048201        1.5576681255
  O         2.8644232537       16.2230857125       13.2110788001
  O        11.3059850237        3.4963807817       16.4767661493
  O        17.7978615792       15.2735695007        2.7207802167
  O        17.8767498558       11.7786135718       12.9762277678
  O        11.5631608686        1.3663591219       14.1445589066
  O        11.1400087475       13.4338611481       14.9147888261
  O        -0.4198595328       -0.1513802649        1.7775583522
  O         2.7129796256        4.5313748032       12.3657095789
  O         8.9309540639       13.3725903735       16.5758898257
  O         4.4395494820       16.3827626978        5.5343590242
  O        13.5558796625       16.9341535180       16.4580789290
  O        18.2300263560        1.2016763183        9.7206496463
  O        16.8849280673       17.3867654635        4.3650380142
  O         5.8077270098       17.9245251322       15.0002945281
  O         4.3675282851        0.8452325752        2.4283578241
  O         2.2266340415        9.8534941560       -0.8076764679
  O         7.9754637041       14.8098902353        2.3696506530
  O         0.0786232292       17.3602633726        3.5861154460
  O         1.3255267455        6.6103759033        2.9559528683
  O         8.3483116569        2.3710466856       17.4510126461
  O         9.9237165268        1.3181261803        4.1332501208
  O        12.6441661442       15.7935624423        7.1754645429
  O         0.4755510520       15.2671403399        5.3265553871
  O         5.0145022540        0.4964051524       11.3167349127
  O        18.5865373061       18.2895963348       17.5289154831
  O        17.5396304284        3.9742347635       -1.6877709265
  O         6.6449808787        2.1529272171       12.4807745774
  O         3.3385290556        9.8390761767       15.8106105714
  O         7.1492652138       13.4425988344        0.3410632884
  O         1.7570995286        4.9012297529        1.0870931520
  O         4.3663989385        7.7378621068       17.0731579331
  O        15.6321141625       16.2541776564        8.7095780291
  O         1.3454579556       16.3701471220       15.5349092329
  O         4.5095934837        0.7137159321       16.1983593589
  O        15.5728592553       18.3601855255        6.3212079972
  O        14.7799119257        5.8899904446       16.5198123318
  O         1.9526856839        4.1367689009        3.6214261994
  O        14.5365850885        8.0139367911       -1.3848902567
  O        -0.4389690351       14.1997172104       12.7775391297
  O         2.2151604999        5.0985508669       -1.4849215542
  O        -0.0047589003       11.8190812696        3.1152279936
  O         4.1591150679       -0.2798477100        0.0205726820
  O         0.7095664318        4.8698259857       10.8135467609
  O        10.1297309900        0.7949765278       16.3820827769
  O         4.3406930470       17.4271735454       11.2947432299
  O        16.4748159460       12.6518206349        4.7118164251
  O        12.9275024881       16.8834895300        2.2575735249
  O        17.1385484026       -1.2822016179        9.9754316628
  O        16.5074277569        4.5712614486        1.6328722729
  O         3.3498973683       16.6282961075       -0.0765770859
  O        -0.3383707170        5.6270770462       -0.3275953209
  O         4.2761977511       12.6635177839       15.9939473931
  O        14.1377119321       14.7876907358       11.9087575114
  O        18.0265763700        2.3745227628        1.1991416859
  O         6.6114524269        1.2153546440        7.9700731343
  O         2.3929171555       14.4926600912        1.4970538399
  O        18.9310516594        4.6036142185        2.5893872064
  O        12.1644162966        8.1960337063       16.7262479359
  O         8.5664857314       -0.4328056171        2.5761250508
  O         6.1820920011       18.2033912199        9.5688955569
  O        10.3658364721       11.1553923372       17.0884905374
  O         3.5230521867       -1.3853027291        7.4465290445
  O         0.2952760748       11.5810939633       -1.6814396436
  O        12.6643402441       17.0909191789        4.8773391409
  O         3.1154764075        3.7633964583       15.0984612340
  O         3.2146836139        2.1510664121        0.1991762211
  O        13.8604259593       13.5173024083        4.6285544492
  O        18.1991493974        2.8579394279        5.9831484549
  O        12.3245065619       15.0174797350        0.4617077778
  O        18.8306006832       -0.4210164439       11.7474420057
  O         5.5350672660       11.3280034149       -0.2353223817
  O         8.7715712476       -0.9120544602        5.1488761822
  O        16.3290783558        0.8772758880       11.3922321177
  O        14.9671058795       -0.2549426589       -1.7861372684
  O         5.9461013771       -1.1369285025        6.7268333900
  O        10.1749898768        1.3898091818       -0.3754817504
  O         4.1548108117       -0.5282999461        4.7356008564
  O        17.6912899461        5.6576931480       14.4080435832
  O        10.5826090362       17.4439334700        6.7246182561
  O         4.9807233012       13.8384632931       -1.1965181182
  O         2.5445412348       16.6107569457        3.9511614699
  O        13.7084583793        3.8799048379       -1.7307560592
  O         5.4307112688        6.8432685038        0.0524222272
  O         5.8558344486        1.7360865484        0.4718844970
  O         1.4484118924        9.5281937043       13.3300549553
  O         8.2666309569       -0.9733120274        7.7756691514
  O         3.6196124525       14.7175506667       11.1701700053
  O         1.0520770014       16.9324870930        1.2078007464
  O         1.5804867254        8.0723352773       16.9379369525
  O         9.8702207139       13.9416794900        0.5517478956
  O        17.1624864026       10.8665760381       10.0299172752
  O        17.5106102905        1.5358637563       16.3639603762
  O         9.8706435541       15.7390136691       15.7390350606
  O        14.5491036848        1.3008513920        7.0986077650
  O        10.7392939092       18.1138446118       14.7738470205
  O         8.1583202425       17.2917972796       14.5097643711
  O         6.9544376922        7.0220623963       -2.3262319595
  O         3.7028798253       14.1871867757        3.8322452094
  O        10.1426822610       16.1073502101       13.0660729754
  O         1.8887691674       -0.8564191008       -1.2229913646
  O         3.9181052027        2.3574357205       12.9162101030
  O        15.6288399920        3.3719748353       15.9540706764
  O         3.1472571754       18.3641032719       14.8439134768
  O        17.3304500415        0.5614101771        4.9445434684
  O        17.2279574417       -1.0187838429       13.8124134093
  O         8.5727648584       11.0030114713       15.1815508831
  O        14.1752946621        5.6895100191       -0.2347842999
  O         5.0703975575        3.1911489304       10.6526609763
  O         0.3881863259       17.3976402991        8.6241278707
  O        12.9456145780       18.4894213047        7.1409936567
  O        11.7538841359        5.8511526684       -1.3727942173
  O        14.8541562327       -0.6362469596        8.9158744973
  O        16.7317695842       16.8055205069       16.0125310267
  O         8.1301994080       15.9599019932        0.0254211720
  O         0.5915536582       13.7273695473       15.8660256912
  O         5.6527419983       10.6022556451       16.5205638385
  O         1.8801235075       16.8740903291       10.6394618419
  O         5.0855528285       16.2139130124        2.9200915025
  O         1.5100808116        3.1713354158        6.0127214760
  O         1.7155742365        1.5519089029        9.6502715450
  O         8.3847065380        4.9929959274       16.3722945786
  O        15.0331542517        8.0828601698       13.6073074213
  O         1.2714408568        8.5448135635        4.9874634647
  O         6.1872532857        3.9390385334       17.3360032837
  O        11.1289501417       14.4759705622       17.5448859702
  O        15.5549191712       15.2363552178        4.1112869892
  O        17.9203165148       11.9887465730       15.7346007139
  O         0.3480041212       10.6809286018        9.0663615549
  O        11.2052625962        5.9439195434       15.3247787698
  O         1.0023852893       18.1530138635       13.6261631401
  O        19.0458008523       12.6894310001       10.6872142781
  O         1.6559919607        7.3002862651        0.0003244261
  O        18.4976060467        6.3003789603       16.6869530636
  O        -0.1407999714        3.1262239370        8.2928071471
  O         2.7211826456        7.4561294884       14.8172225300
  O        -0.4109611615        0.7029109542       14.1105555240
  O         1.2601386684       12.1253542130       12.6960909296
  O        14.4509099887       12.0761191138        0.1851709044
  O        10.9237584099       18.3880090816        3.3639177958
  O         1.5321049712        7.0426062008       12.4251288575
  O        -0.0335301934        0.9612742265       -0.4486044832
  O        18.7616190100       15.7054914571       16.8254728529
  O         0.4386687327        0.4938333483        7.6089154868
  O         7.4968261379        0.3914171832       14.2261841469
  O         9.1049382631        2.3263603523       13.3913350784
  O        18.5732206291       16.6595089943       12.9474113939
  O        16.5913731368        6.5427257433       -0.8285458348
  O        14.9911000485       -0.6682700546       14.9504126913
  O        13.7586733150       12.7487917202       17.0469722454
  O        15.8451299793        2.1747116484       -0.9972829129
  O         0.1220348193        7.6566061145       14.6310662247
  O        17.4914181443        3.5944273132       12.8475877161
  O         1.0802025903       17.8734079611        5.9485565662
  O         2.6836276748       12.0899024086        2.7957413781
  O        13.1017323623       10.2978022601       -1.3275864508
  O        16.7703624434       15.1261193255       11.6564348871
  O         4.2928070210       17.6907135939       17.1502407038
  O        14.2664512446       16.7804517875        0.0600998231
  O        11.9199916315       12.5044052571       -0.3527970010
  O         7.2359667543        2.9584627336       14.9914686294
  O         6.6469227575       17.9511396315       12.3727475206
  O        17.2087510835       12.3680965446        0.6476176672
  O         2.8429657195       14.7731243182       16.6765018466
  O        15.9934682735       16.8361198422        1.8823925790
  O         2.0019853709       -0.4467017856        2.8626541555
  O         0.5227972521        4.9472317590       13.5489721238
  O        15.0220057418       17.2468468916       11.1775198884
  O        16.9790012384        8.1171502388       15.4301560211
  O         7.8735080381       11.0656236102       17.8335697841
  O        16.3179107336       10.4396511182       14.3259864657
  O        16.7087596253       16.6954623640       -0.8000209737
  O         1.1405440471       11.5380049198        0.7421652751
  O        18.8954665577       15.5570768097       10.3267603569
  O        19.5061284673        5.2357952691        6.5978391913
  O        16.7184559715        0.1638021428        0.1828525902
  O        17.9698960220       -1.2029215721        6.8094267232
  O        18.1231081038       12.6366704514        8.2032755892
  O         1.1477858625       15.1014645387       -0.7941165306
  O         2.7260592885       12.5316835030       -1.1328630467
  O         5.5432396168       10.6564930247       14.1399481905
  O        11.0196595954       15.6014848351        3.4359038294
  O         6.3226658316        9.0700306868       -0.7320085514
  O         3.3257141389       11.5611061443       14.0247143807
  O        17.1478218378        2.8180016407        3.5982791685
  O        12.7086080100        0.1178407999       16.0973621256
  O        -0.7322571459        8.4266572869        3.1674301478
  O        15.9869261174       13.0985413461       14.2880246505
  O        15.0611314472       13.1947544751        2.3606762630
  O        13.2919400764        4.1849836035       14.9299520652
  O        11.1577122143        2.1115014284       11.6213970729
  O        19.0391932799        3.2088233886       15.1122885449
  O         9.6715733522        7.3051966587       16.9251184152
  O        11.1087331772        3.9234385298       13.7162292082
  O        15.5499949640       16.2595122550       13.7306406063
  O        11.6044750316       17.5903776470        0.0225167104
  O        -0.3123801014        9.0814624120       -0.5873150985
  O         0.2036327313        2.0892458808        4.0019611419
  O         5.0447838708        4.7573022249       13.5307508598
  O        14.3708723702        9.4632029968       15.8432244134
  O        15.7241963151       14.5711277619        0.1831016485
  O         0.7265568250        1.0714358405       16.5604204238
  O         1.6594359538       14.9510706297        8.7278997061
  O        12.2690858641        3.9041846806        0.5189775910
  O         0.9141377364       11.1917759468       15.1066655947
  O         8.6190901195        5.6803515917       -0.4349149884
  O         2.7229817516        1.6111854453        4.3881525940
  O         1.7169379244        9.6230592145        2.5701947860
 Na        10.7870870721       11.0414737946       14.5171874359
 Na        18.9324516031       13.6777236344        1.3545824876
 Na        14.4409633325        3.0494628146        1.0695355984
 Na        17.4613041441       10.5764955636       -0.7390136991
 Na        18.5083710426        6.7903724028        5.3135097210
 Na        11.7834326187        0.2896486343        1.0183318088
 Na         6.4592087653        4.1597635816        0.3355692521
 Na        12.1388405680       14.7083122540       13.0618293849
 Na        -0.0596626071        5.7371602069        8.6921981798
 Na         0.6792922746       13.9603386955        6.9495427187
 Na        13.2927633245       10.3017633335        7.7866878727
 Na         5.3680681468        5.4097311898       15.7214365450
 Na        11.0464075753        3.2028944788        2.5075356816
 Na        13.9959340409        0.5112527825       11.1998362334
 Na        16.5942360759        1.6903676205       13.4519120155
 Na         0.3953221456        9.9474418958        6.8136565717
 Na        10.0137262868        3.7598843790       -1.0544056574
 Na         3.1485947662       13.9947570892       14.2036835025
 Na         8.2912010425        6.3141602222        7.3369836596
 Na        17.1057210794       14.4136025034        8.9775158788
 Na        -2.1660609556        9.7438442950       12.1150380011
 Na         9.3220034853        5.4896110235       13.8726480629
 Na         3.7003706389       15.8310165171        7.9765978418
 Na        15.2665318685        5.8017832951       12.7261719584
 Na         5.6486558157       16.4835603087        0.6227291111
 Na         3.1847713286        9.9588096049        4.5192852797
 Na         2.8379004114        3.9526168936       10.0948605574
 Na         1.2631815741        2.6987697964       -0.2712193769
 Na        18.1602179935        7.5451694215        1.0642075120
 Na         1.9660566622       13.0519466890        9.7457187342
 Na         6.8500488415        8.2320494035        1.7978174950
 Na        14.6038425553       14.9435272011       16.9765723486
 Na        13.3802907753       15.4756114292        9.4335472806
 Na         8.1220304227       16.7872584441       17.2514327044
 Na         7.1983314935       -2.1215581544        3.4225827440
 Na        12.3289883596        1.8218288509       -1.6963588496
 Na         6.2233411520        0.8283898849       -1.5570355789
 Na         2.5843250918        6.4898831942        5.4662219634
 Na        15.1462265228       12.4612458044       11.5843446810
 Na         6.1696946856       13.7262449992        3.3841162975
 Na        14.5647067939       18.6967883907        2.4724508658
 Na         3.5711221960        7.3693974730        1.1956597021
 Na        -0.8758966904       13.6668153231        4.1939368945
 Na         2.6462372696        1.4183351963       14.8034042582
 Na         3.1626259069        0.9501612320        7.2664106888
 Na        13.9235486365       12.2777952453       14.9832990125
 Na        15.0819083771       15.8310535216        6.2404902629
 Na        16.5084323487        2.4078430580        7.5400780953
 Na         9.3403245846       -1.6098654491        0.6438686966
 Na         7.5862087564        1.6833941424        5.9028759164
 Na         7.7440831338        1.3309308831        1.5677513182
 Na         4.0787216807        3.0171573349       17.5560858323
 Na        18.1347453783        3.7835007645       10.5999529421
 Na        12.7456605548       13.9819011059        2.6416643514
 Na        11.4396506825       16.9477212741       -2.1712935396
 Na         7.2973149514        8.8275119584       15.0860191937
 Na         1.6816970062       -0.3112289896       10.9913097687
 Na        17.5815898208       10.4712510943        3.2765766294
 Na        17.6789879854       14.8863394725       14.8251934569
 Na         1.5095683369        5.2705389218       15.6656691129
 Si        -0.2553821018       12.6460066565       12.2830030358
 Si         3.4583796682       18.1109973197       -0.9163623174
 Si         5.6157070366       12.8859084152        0.1035665597
 Si        15.0936863362        6.5176550480       -1.3964951105
 Si         0.8666834198        8.3564884176        3.4610241405
 Si        11.7714392562       16.9732907917        3.5228719828
 Si         5.6710103355       18.3623582753       11.1135215595
 Si         1.6365101439       11.3673790796       -0.7285873453
 Si         1.0669813890       16.6337335096        4.7258657637
 Si         3.7028603032       13.5029312979       17.2873318933
 Si        15.2916786180       15.8233577730       12.1028554672
 Si        18.4633097027       11.6775431465        9.4673535593
 Si        18.1797544946        0.7980399110        0.7220461256
 Si         8.8966694768       11.6292516047       16.6551053300
 Si         6.6976770561       -0.4484052650        8.0949711188
 Si        15.6875716853       16.1339485526        0.4160395319
 Si         0.2989469611        1.6053984057        8.8970560242
 Si         0.4684124867       -0.0368714966       -1.6515385056
 Si        18.1094323883        6.9706941781       15.2013547744
 Si         9.5253645491       -0.2107589493        3.7994329235
 Si        15.3424162611       13.5545216284        3.9582489205
 Si         5.6895985041        7.6410901809       -1.3142160744
 Si         4.3728335580        1.2778519436        0.7483919164
 Si        10.7251525463        2.3063546214       13.1074055037
 Si         5.1080634798        2.0997901964       11.8340310337
 Si         3.2194026754       16.2198905107       11.5047175453
 Si        16.6911271011       16.1490877781        3.2581587804
 Si         1.3849935725        5.6846417239       -0.2838356800
 Si        11.2629467551       13.9910241143       -0.2855513269
 Si         1.9746610101       15.8062098513        0.3832755680
 Si        13.3601449137       11.9771123435       -1.0877464161
 Si         1.1529117682        8.6227193144       -0.9159948484
 Si        17.8795740537        5.5460465221       -1.4831875471
 Si         8.2937203316       14.5789909904        0.8136108963
 Si         1.0291850618       15.1228138243       16.7610682167
 Si        17.7539326583       16.8711197356       17.3584123314
 Si         3.3345241379        0.2790415740        3.5870828378
 Si         6.9510112305       18.3068434129       13.9406547348
 Si        17.5366799721        0.0774794944       10.7896974902
 Si        14.0223148348       -0.9540446696       16.3072317172
 Si         3.4011588748       13.5419524606        2.3788753830
 Si        12.8753007028        4.8049864281       -0.6585313732
 Si         7.5906784938        1.9933913633       13.7628296639
 Si         3.9759035398       15.8502736548        4.0022216394
 Si         9.2494066252        0.9324826566       17.7660672560
 Si         8.3969491025        6.2249903209       -1.9204913236
 Si        12.2402789948       17.1633699892        6.4797147057
 Si        16.1091206580       17.5199061376       14.5907716068
 Si        17.0176561434       -0.9405783144        5.5658080143
 Si         1.6201004971        2.7438331867        4.4131883361
 Si         9.6954635052       16.7780217618       14.3805810400
 Si         4.4888320608       -0.8099519926       15.8132520691
 Si         7.4933413628        3.4749169968       16.5657083495
 Si        14.3201795636        4.2810594517       16.1854572177
 Si         8.9699950913       -1.8295832389        6.5496600677
 Si        18.3371648765       15.5081164915       11.8475997079
 Si        15.2993424706        0.6370450718       -0.4665448960
 Si         0.0958314549       12.1321978070       16.1689388011
 Si         0.7345483605       18.1304714721        2.3554947068
 Si        15.6211483815        8.9737223054       14.8134888476
 Si        11.6812865345        4.2592509068       15.1933840483
 Si        18.0951720322        2.0223533876        4.6300029319
 Si        18.4282280393        4.2574987521       13.9145597371
 Si        15.7233617751       17.5179128431        9.6155428703
 Si         1.3034620308        5.3633721932       12.1584380260
 Si         1.7848431490       11.0452217626       13.7913303094
 Si         0.1142460875        3.7144522575        6.7357447450
 Si        18.9366981020        1.5753739176       15.4735958002
 Si         1.4994962938        7.9345748453       13.8473201502
 Si         4.4324436159       11.0711325683       15.2458586961
 Si        16.6201456795        2.7113055085       17.0825158262
 Si         0.1359678100       -1.1060158664        7.2491946455
 Si        17.6130127087        3.6200509148        2.2058310688
 Si        14.4715318921       -0.2847706334        7.3431281484
 Si         2.0592467947       17.1682156616       14.3273417990
 Si         4.4289311102       -1.4769912392        6.1589053824
 Si        10.3398075528       14.1335336834       16.0784873771
 Si         6.3122821886       10.5707126905       -1.4400420425
 Si        -0.5835795076       18.3664399606       13.2764568779
 Si         1.0807609416        5.1056717583        2.5778644842
 Si        12.7463639167       16.6700885624        0.6739697309
 Si         3.0483160430        8.3624196669       16.2712798643
 Si        16.9809457032       11.9143446999       14.3787941218
 Si        15.7523194692       12.9891574384        0.8337997908
 Si        11.2571364561        0.2150792975       15.2916290689
 Si         3.6739147713        3.9132442144       13.6105438898
 Si        11.2462933032        6.8249352987       16.7868765185
 Si        13.5576123279        9.0020442854       17.1537189324
 Si         1.3116446374       11.2453030044        2.3451610609
 Si         0.9389225890       16.0903388808        9.4802250363
 Se         8.1951478562        4.8812892964        9.9634107326
 Se         4.9599361318        7.3204319746        3.8865475540
 Se         5.3444040152        3.9124334404        6.2608249321
 Se        11.2894200207        6.8295165055       11.8171295921
 Se         8.1279207384        4.2798762808        2.6387382102
 Se        11.0505411225        1.3255524041        8.2512446019
 Se         4.0112443919       10.9823627623       10.8177713159
 Se         9.0809586296        7.5467793061        4.8893523726
 Se         2.4098559384        7.2899473142        8.5767058138
 Se         8.4982585671       10.8699680920       11.6443053827
 Se        12.5495775351        5.9894861160        2.9780852464
 Se        11.6613780109        5.4041839015        7.4078693884
 Se        14.1222633907        8.2171277745        9.4587766852
 Se         6.9586315859        7.3592878171       12.7426583868
 Se        13.3190325284        1.7714415866        3.8965510625
 Se        15.0120298036        3.9240730771        9.8484787159
 Se         6.8402450198       11.3806130844        4.9311972829
 Se         2.9023374711       11.5756444556        6.8295264878
 Se         6.7811735827       13.0771350629        8.6968828485
 Se        10.1826811187        9.0449745696        1.6971615039
 Se         6.2074959883        8.4057715318        8.1367980512
 Se        10.2794286725        9.8829590303        8.4395497565
 Se         6.5965179404       14.3809360794       13.0976831524
 Se        15.3734839569        8.9935495266        2.1930028319
 Se        12.5585029963        9.5525256501        5.1227919152
 Se        17.7893251053        7.3543885185       10.7537841355
 Se        12.8595665504       11.3115509875       12.3563524577
 Se        15.8696343693        5.7622167453        5.5124002273
 Se         7.7851686669       15.5912335804        6.2461241569
 Se        10.6269081369       14.2152512178        9.9859547301
 Se        10.4259546987       12.6024939749        5.7046880655
 Se        14.3744646636       12.6889699007        8.3422335971
 Se        17.0302511315        9.3269385031        6.3893023613
 Cd         6.3228382552        8.7974386403        5.5782471427
 Cd         6.3738857381        5.1423188431        4.4080626671
 Cd         6.3494764795        3.3033157964        8.6994099760
 Cd         6.1161221418        5.0803463695       11.7311424647
 Cd        11.5824915216        1.6339765530        5.7212713733
 Cd        10.2724065888        3.1530520084        9.9206951176
 Cd         0.7567658725        8.4987775193        9.9614587013
 Cd         9.5056895882       10.1548265767        5.5846860191
 Cd         3.7650396687        9.5896833588        8.5448382628
 Cd         5.4227377521        9.4989161641       12.2481547732
 Cd         9.5038746557        6.3255724277        1.6531881191
 Cd        13.8641329620        4.2429185715        4.4546357984
 Cd        11.4153357656        7.4840389490        8.9629657934
 Cd         7.1869123401       12.0465933927       13.9050033173
 Cd        15.3734351677        6.3389357341        2.1640840352
 Cd        13.2495269910        2.7115836587        8.4992258181
 Cd         5.2696506600       12.3783661380        6.6249202019
 Cd         5.4160712280       13.2620018959       10.9730799486
 Cd         8.8127953907       14.7240780641       11.8421671169
 Cd        10.4856929224       10.1079857512       -0.5177089963
 Cd        11.7805936377        6.9255566047        5.2705499157
 Cd         9.3083809124        8.4924465487       11.7736379233
 Cd        11.1813533930       11.4922894093       10.3056849580
 Cd        12.7895427611        8.8201785243        2.5037275041
 Cd        15.0241373082        8.3342136714        5.1354271779
 Cd        13.2080817112        8.7283928152       12.0908633199
 Cd        16.6726597845        8.7925405913        8.9401485326
 Cd        14.5629621701        5.8754541563        8.0080544103
 Cd         9.2439561997       14.4569786923        4.0739226702
 Cd         9.1993414965       13.7159899410        7.9337585046
 Cd        12.7955700032       13.5286177695        6.4685589516
 Cd         7.3399160347       10.4151175080        9.2059382320
 Cd        16.3699890837       11.9180531096        6.8221608692
