426
 i =     7800, time =    15600.000, E =     -8405.8875351793
  O         7.9508322931       -0.2782451695       17.8292951239
  O        13.9232398033        0.7161236163        0.4881227391
  O         4.6198291659       13.1890583605        1.2820049318
  O         2.3060123487       16.3183204655       13.0637253885
  O        10.9813046463        3.3760389255       16.2419321562
  O        18.0028851993       15.1726545612        2.6680404396
  O        17.6537811667       12.1172763201       12.9293073182
  O        10.9979190395        1.0105794664       13.7251493214
  O        11.0487362223       13.6732688391       14.8542365477
  O        -0.7390547956       -0.3576585342        1.7057894251
  O         2.6897059742        4.8053504526       11.9019205608
  O         8.7306996735       13.2870719757       16.2261511069
  O         4.4744925903       16.4285121028        5.3846477959
  O        13.2179221779       17.1101418478       16.1861972331
  O        18.3289087217        1.3650160165        9.5681699900
  O        16.6975432892       17.4313559451        4.0103774305
  O         5.6532391987       18.0220909366       14.5949946556
  O         4.3598544813        0.6950432634        2.2477478872
  O         2.1371226290        9.7907175148       -0.8168751276
  O         8.1828750252       14.7256258084        2.2262277979
  O         0.0701169021       17.5472605886        3.7169139881
  O         0.7202108690        6.7570307833        2.9074918532
  O         8.0345944119        2.2909683419       16.9684137111
  O         9.8094849136        1.3476027275        3.6127479233
  O        12.4972298531       15.8307515656        6.9133443512
  O         0.0169063702       15.3025402307        5.3631349797
  O         4.6984131333        0.3935428692       10.9277082242
  O        18.7256277832       18.3921529745       17.1641730260
  O        17.3342917173        4.0282830918       -1.7942309201
  O         6.3880493692        1.9345072385       12.1705908059
  O         3.0512150360        9.9475209602       15.5042527247
  O         6.9377528157       13.4647914726        0.2768050826
  O         1.4895817286        4.9475510907        1.0340713657
  O         4.2669811481        7.6787259213       16.3955865047
  O        15.5667736557       16.3457721708        8.5947708306
  O         1.4862634417       16.4625368316       15.6810937848
  O         4.5906770950        0.8325673215       15.8620595226
  O        15.5331238352       18.3967517789        6.1902440180
  O        14.6941185125        5.7916219421       16.6576131554
  O         1.4252540095        4.1732696150        3.5524547412
  O        14.4037942408        8.1781851491       -1.3869079091
  O        -0.4417525317       14.3895449157       12.6427443503
  O         1.7263673912        4.9689206253       -1.6871167581
  O        -0.0257875714       12.0332823331        3.0865816020
  O         4.4877247829       -0.1949514903       -0.2751241254
  O         0.6190707556        5.0374756319       10.3885844143
  O         9.7406649483        0.5134767414       16.0088585192
  O         4.2307470645       17.2652972256       11.1651954559
  O        16.1313884584       12.4377410325        4.5793968697
  O        12.8010451565       16.8308231016        2.0449780382
  O        17.1751153811       -0.9969959555        9.6821889704
  O        16.1359169803        4.2194110519        1.5354021973
  O         3.1009968441       16.9658417251       -0.0451595959
  O        -0.5396927456        5.6906716578       -0.4213370898
  O         4.0460203377       12.7864451909       15.6065195679
  O        13.9314969245       15.2752128704       11.9498852970
  O        18.0356765509        2.3077935403        1.3337881556
  O         6.1363787260        1.0831696705        7.9865130333
  O         2.2778033369       14.6555719995        1.2312451419
  O        18.5488176725        4.7530960822        2.3266180803
  O        12.0580057297        8.1941747822       16.4177412652
  O         8.2936450070       -0.6133056293        2.2957047053
  O         6.2186677733       18.1934806236        9.3645940757
  O        10.1958889836       11.1180045494       16.7033191364
  O         3.4901833009       -1.0930209816        7.1743205549
  O         0.3535487467       11.6773098041       -1.9541041251
  O        12.5164503713       17.3141445281        4.6751758880
  O         2.7796249344        3.7129018537       14.4589090837
  O         2.9336540286        1.9924992788        0.2518789903
  O        13.6420471796       13.5749422941        4.4603303126
  O        18.1291922462        2.8443156078        5.9711914470
  O        12.0875374545       14.8756888512        0.3531824295
  O        18.8037525424       -0.1848188211       11.7188631982
  O         5.4885690374       11.3541789938       -0.2906396707
  O         8.7172115211       -0.7869724199        4.9063703610
  O        16.2809172018        0.9626946542       11.2707457499
  O        14.4589223249       -0.2023350153       -1.9260553384
  O         5.9391392139       -0.7802058353        6.3410024046
  O         9.9537385081        1.2520892425       -0.7773169134
  O         3.8428041088       -0.4370798626        4.5838002636
  O        17.3123122188        5.6791615697       14.3721187503
  O        10.5027787909       17.5063655338        6.5478819385
  O         4.9197620332       13.8448523736       -1.4320962011
  O         2.2762664815       16.1627256595        4.1281962542
  O        13.4263547799        3.7897420098       -1.8274593536
  O         5.0036735428        6.4346655521       -0.7913411858
  O         5.7635048638        2.0615479993        0.3299190584
  O         1.2156017961        9.5188903291       13.0039914907
  O         8.1612168453       -0.9384694214        7.5979717259
  O         3.2512021158       14.7089340551       11.2110874714
  O         0.9190678167       16.8837709530        1.3599102127
  O         1.5255528089        8.0842964550       16.7647239804
  O         9.6407175278       13.6154361418        0.2162734781
  O        16.6508054729       11.2571837430        9.9880858260
  O        17.3413667346        1.6142517386       16.3838055386
  O         9.5454111144       15.7767407431       15.7161212674
  O        14.5393441811        1.3524546281        6.9657242847
  O        10.6916837685       17.9305841001       14.6961800090
  O         8.0309459582       17.2586010663       14.2513606195
  O         6.7857023949        7.2190980486       -2.7874377355
  O         3.8137993236       14.1145950756        3.5586159791
  O         9.9726821946       15.9259870881       12.9768844565
  O         1.9817493983       -0.4220167901       -1.5777188154
  O         3.6717647568        2.2017508963       12.4036040157
  O        15.3699301092        3.2917454346       15.7859460311
  O         3.0660966968       18.2821099550       14.6743320838
  O        17.2845577762        0.4565057300        4.7847017348
  O        17.0603476578       -0.7474998012       13.8101096009
  O         8.3279308765       11.0154261280       14.9617114544
  O        13.6598529113        5.8522181989       -0.2895205789
  O         4.9154157859        3.0006114631       10.1563930433
  O         0.3762898623       17.6923009062        8.5376473971
  O        12.9673004916       18.4284694846        6.8578467898
  O        11.6717589180        5.9934438195       -1.6263323017
  O        14.7589918572       -0.5134719466        8.7586609203
  O        16.6364248726       16.9957818795       15.8286797834
  O         7.9567641962       15.8706635037       -0.2434912389
  O         0.3470792313       13.8573566619       15.8549200487
  O         5.2854946047       10.8828797490       16.3553766048
  O         1.8664816620       16.9133105562       10.4328380538
  O         4.7721026470       16.4065437939        2.7469691343
  O         1.5067407549        3.0940746374        5.9024552078
  O         1.7468800975        1.4975288891        9.4886303912
  O         8.1244700335        4.8823562616       15.9827240367
  O        14.8330034872        8.2850811043       13.3910290883
  O         1.2704388622        8.5448555609        4.8270305783
  O         5.9021429444        3.6457937917       16.6631012425
  O        10.8955260462       14.4074814879       17.4626760498
  O        15.7976708525       15.0421733434        4.1510488959
  O        17.7060601304       12.1389674224       15.6436065096
  O        -0.2028354675       10.8609919186        9.0694767767
  O        11.1159901893        5.9131445798       15.0975623979
  O         0.7450490561       18.4080715408       13.9258264536
  O        18.5401279019       13.0033029464       10.5544473811
  O         1.6075546501        7.2259867346       -0.1064208129
  O        18.1865406277        6.4778762877       16.5263798955
  O         0.1166685965        2.9935309279        8.1156638792
  O         2.5212585903        7.6576561611       14.3978635154
  O        -0.7104046773        0.9627916154       14.1348700636
  O         0.8880733546       12.1449357557       12.3154026213
  O        14.5503691763       11.8836378856        0.0541469880
  O        10.7102546759       18.2484256590        3.0785312589
  O         1.3691603740        7.0340772825       12.1614182573
  O        -0.2094149134        0.9542817207       -0.4610419516
  O        18.6614110782       15.7788418445       16.8105094819
  O         0.2280496501        0.5427894145        7.3133230849
  O         7.6610513211        0.4240995679       13.8436318354
  O         8.9747525975        2.3789175032       12.6525385971
  O        18.4740301814       16.9021638107       12.8886325229
  O        16.3367789538        6.3779428925       -0.8161819022
  O        14.7403929856       -0.5516537830       14.8423117190
  O        13.6550675243       12.9563448841       17.1448202795
  O        15.5443935689        2.1576845466       -1.1585342170
  O        -0.2348547980        7.6239380214       14.2855894697
  O        17.1446714661        3.6998142173       12.6978686085
  O         1.1979359434       17.5946585898        6.1535350354
  O         2.5751014274       12.1432518030        2.3710036847
  O        12.8718177690       10.3743105720       -1.4908772313
  O        16.6689471915       15.3469795938       11.5040044554
  O         4.2729136244       17.7417181349       16.9342746248
  O        14.1875294165       16.4398254405       -0.1018093911
  O        11.9425525220       12.4142796847       -0.2292161943
  O         7.3844361411        2.9876718333       14.4998366724
  O         6.5353543032       18.0964369863       12.1064557079
  O        17.0002462607       12.1775029313        0.7619490220
  O         2.5253072097       14.5639757771       16.6774181140
  O        15.9709813506       16.5546771197        1.7480444497
  O         1.9705008526       -0.3725634740        2.5356042395
  O         0.2063096458        4.8899500719       13.0670313116
  O        15.0800663678       17.4649975569       10.9055777740
  O        16.7284399499        8.2589943206       15.1484552524
  O         7.6165127991       11.0632695094       17.5570224374
  O        15.8671814418       10.5684008119       14.1458303246
  O        16.7706973407       16.7939825214       -0.8477481536
  O         0.8842484540       11.6586596462        0.5097506177
  O        18.7750944551       16.0785446436       10.2719074596
  O        19.3718118422        5.2651254088        6.6067621873
  O        16.5643571336        0.3112126359        0.1163092451
  O        17.9466087967       -1.4810564711        6.4578909566
  O        17.9259552107       12.8170704185        7.9738660992
  O         0.9902201886       15.4711658152       -0.9338510198
  O         2.8190817228       12.3068346452       -1.3285170088
  O         5.2976218874       10.5180031903       13.9673180790
  O        11.0561161925       15.4785766470        3.2104224604
  O         5.8948630353        9.0445191813       -1.2411468426
  O         2.9471485250       11.5653006401       13.7729936116
  O        17.1827460666        2.8109892498        3.5575912882
  O        12.3808984582        0.2049644105       15.7798762887
  O        -1.0244030237        8.5332309221        3.2178172194
  O        15.6126982369       13.2500557127       14.3475264961
  O        15.0092200763       13.2272466392        2.2429815058
  O        13.1820102397        4.3801062683       14.8596864230
  O        11.3989841682        2.2811583511       11.4694249712
  O        18.8058619857        3.4600771191       15.0504438374
  O         9.4061232726        7.1656474924       16.7318003190
  O        10.8821927992        3.7346425181       13.6197136729
  O        15.6922540949       16.5207167419       13.5064146194
  O        11.6720217734       17.4988949598       -0.2656714923
  O        -0.4535278188        8.7031089552       -0.8405445374
  O         0.1776394955        1.7696375776        4.0320734201
  O         4.9793740570        4.5033328922       12.9808394837
  O        14.3711510678        9.4506683667       15.8094550462
  O        15.7663516169       14.4010054977       -0.0484476072
  O         0.4801343189        1.2731369522       16.4079769367
  O         1.2041598314       15.1091409757        8.5515823844
  O        11.7697983790        3.8755668189        0.1828097208
  O         0.4855201014       11.2863223395       14.8672801751
  O         8.1739522001        5.8065525243       -0.8287149763
  O         2.7583049920        1.8441845504        3.8841666840
  O         1.2243070498        9.6573459634        2.3300666365
 Na        10.5694988125       11.3744108504       14.2023419374
 Na        18.8780794271       14.1274410330        1.0784776905
 Na        14.0599292592        2.8279546973        1.2571598145
 Na        17.5115935228       10.7524902530       -0.9021826361
 Na        18.4793635497        6.9771901641        5.2374407918
 Na        11.5533196895        0.3620713265        0.6532464049
 Na         6.2291239282        4.3815597936       -0.2227858175
 Na        12.0216596083       15.0081870860       13.2707709126
 Na        -0.3445832237        6.0580910431        8.5996805342
 Na         0.6294679006       13.7874293800        6.8124544550
 Na        13.0872915518       10.2291399480        7.6607241047
 Na         4.8480880983        5.1808690479       15.0906712859
 Na        10.5116750814        3.2294324624        2.4979898782
 Na        14.0074709938        0.7980742929       10.5648305104
 Na        15.9439163308        1.6893012449       13.3268525417
 Na         0.4780640156        9.8917016233        6.8017315473
 Na         9.7552343957        3.6661934138       -1.1880148488
 Na         2.9196998915       13.8163992620       13.5926187615
 Na         7.8501435556        6.2551018915        7.2101389444
 Na        17.2931517545       14.9268972398        8.9353042482
 Na        -2.5836080686        9.9360321495       11.9830112856
 Na         9.0268430113        5.2625317734       13.3489452230
 Na         2.9989926478       16.1272868941        7.6933650715
 Na        15.7701036867        6.1165789460       12.4678615374
 Na         5.5447278270       16.3425902737        0.6728648742
 Na         3.0195775784        9.8915539825        4.5685534021
 Na         2.7385919324        4.2246244196        9.4379781625
 Na         0.9607302613        2.6735703241        0.4668367624
 Na        17.9205434082        7.7335510018        1.0683854946
 Na         1.4137918241       12.9135259144        9.6860673065
 Na         5.6728929816        9.7652613397        1.8617852748
 Na        14.3819333025       15.2552490574       16.7815325790
 Na        13.2459259239       15.6568970171        9.3284771255
 Na         7.4638295622       16.6039406848       16.9580345928
 Na         6.6663361730       -1.7414123935        3.4423426746
 Na        12.1857303186        1.8923157149       -1.9410936186
 Na         6.0308744297        1.3676527389       -1.9526225737
 Na         2.4871417944        6.5001794032        5.5622455454
 Na        14.9014526864       12.8139266303       11.5999753158
 Na         6.2484707947       13.7227385184        3.1659772974
 Na        14.3941813967       18.4941598362        2.5793559434
 Na         3.7898011499        6.7415859440        0.9915414775
 Na        -1.2674345987       13.6828529137        4.2967845306
 Na         2.5834252730        1.5362416518       15.0126414541
 Na         3.5521666189        0.7610314968        8.1966365660
 Na        13.5066849822       12.5520133269       15.0649572776
 Na        14.9976697855       15.7741228521        6.3632250142
 Na        16.7371821086        2.1242285569        7.7959823453
 Na         8.9289826654       -1.6904075366        0.3401818154
 Na         5.4018848751        1.8587040730        4.8130234432
 Na         7.6177857312        1.0401092346        0.8718883235
 Na         3.6224856296        3.6524658420       17.6347187692
 Na        18.0095351859        3.5763438386       10.5091096409
 Na        12.4491360299       13.5788151482        2.5393073246
 Na        11.1642304146       16.9470277504       -2.4932907257
 Na         6.9036868206        9.0305407455       15.0376051299
 Na         2.1548325250        0.3946788720       11.4649861328
 Na        17.2747533657       11.0529441563        3.1017573973
 Na        17.3799835421       14.9946283974       14.6879084708
 Na         1.2891901525        5.1269754533       15.5564949446
 Si        -0.5544262304       12.8554619295       12.1022741489
 Si         3.4246450304       18.2674402121       -1.0866118756
 Si         5.4921985272       13.0286639144       -0.0930996216
 Si        14.7884263867        6.6343636089       -1.3165334601
 Si         0.5216376594        8.5026726934        3.3849521603
 Si        11.6799068622       16.9472601511        3.2736413122
 Si         5.4632465583       18.2868026738       10.8368900576
 Si         1.5662573632       11.3312935570       -0.8942448924
 Si         0.7453620624       16.5422056086        4.8568361409
 Si         3.5902600293       13.4319574820       17.0375516675
 Si        15.2324512622       16.1733281292       11.9450281327
 Si        18.0148961363       11.9220003630        9.2912448753
 Si        17.9958936616        0.7913510965        0.7274735035
 Si         8.7004595030       11.5560996259       16.4283649062
 Si         6.5987135460       -0.4456883143        7.9007477810
 Si        15.7043749455       16.0084035056        0.2323571012
 Si         0.3619006775        1.4868344430        8.6963822722
 Si         0.4718343664        0.1157908253       -1.8411473772
 Si        17.8016227191        7.0864963915       15.0501465819
 Si         9.3167231096       -0.1804003791        3.4206157892
 Si        15.1437125461       13.4747462717        3.8346347477
 Si         5.4465035994        7.5228039830       -1.8627634202
 Si         4.3343841278        1.2808618440        0.6605239830
 Si        10.6108750094        2.3141715428       12.8375557601
 Si         4.9317567536        2.0200612898       11.3794197150
 Si         2.9252790695       16.2304837415       11.4445756898
 Si        16.7308864569       15.9795559505        3.1068232797
 Si         1.0618144062        5.6770569887       -0.4660340412
 Si        11.1095078667       13.8635842161       -0.4210182415
 Si         1.8443721408       16.0153216844        0.3397697144
 Si        13.3260183041       12.0232311637       -1.0346306208
 Si         1.0725535749        8.4796962080       -1.0998458258
 Si        17.6418381301        5.6498919321       -1.5247590786
 Si         8.2232344332       14.5342457319        0.6152008550
 Si         0.9957958259       15.2202346525       16.7147275524
 Si        17.7293760669       17.0729220849       17.1521354485
 Si         3.1856999549        0.3348784193        3.3110827141
 Si         6.9437454791       18.3661988343       13.6342811363
 Si        17.5422530904        0.3382914736       10.5836247497
 Si        13.7001706670       -0.7609679318       16.1190879228
 Si         3.2404221501       13.5906266622        2.1174060149
 Si        12.5024536153        4.8520579249       -0.8359198502
 Si         7.5339110747        1.9344435925       13.3215534778
 Si         3.8227656559       15.8337997183        3.9035871930
 Si         8.9427289126        0.8711910407       17.4323641033
 Si         8.0707178884        6.2054653653       -2.3456540415
 Si        12.0956046226       17.2447290896        6.2965161154
 Si        15.9277900116       17.7812322495       14.5263719851
 Si        16.8815533505       -1.0336234949        5.3180744971
 Si         1.4835700791        2.6894017580        4.3106168230
 Si         9.6056926206       16.7358832172       14.3022459927
 Si         4.4254669833       -0.6779686146       15.4835371530
 Si         7.3387043597        3.4276942041       16.0241494407
 Si        14.1571691880        4.3278846317       16.1890401901
 Si         8.9035913469       -1.6529591492        6.2718205495
 Si        18.2818577714       15.7154442429       11.8146799484
 Si        15.1246301397        0.6792853765       -0.6073808335
 Si        -0.0600318931       12.2750567395       15.9818263184
 Si         0.5602454564       18.1532738020        2.3203465073
 Si        15.4495020313        9.0818021388       14.6035924171
 Si        11.5034203762        4.2425222741       15.0324199854
 Si        18.0440452508        1.9574374420        4.6332721550
 Si        18.1637231433        4.3251596708       13.7189783392
 Si        15.7081507202       17.6944194214        9.3634560983
 Si         1.1431845846        5.4143946223       11.7874943060
 Si         1.4607606631       11.0459308044       13.4875616941
 Si         0.0762942626        3.6832294100        6.6475132072
 Si        18.6647591046        1.8366583247       15.3728652501
 Si         1.1891778942        7.9162519064       13.4463505373
 Si         4.1986953972       11.0711712285       15.0913878285
 Si        16.4435895496        2.8140918918       16.9888615759
 Si         0.0638178990       -1.1277811078        7.1102030810
 Si        17.3888795387        3.5415675575        2.1256026533
 Si        14.4004124812       -0.2044711058        7.0793193844
 Si         1.8850615019       17.2734265895       14.3327090796
 Si         4.3676365600       -1.3675064690        5.9310760223
 Si        10.0842169993       14.1953849445       16.0180357600
 Si         6.0319940019       10.6036873613       -1.6499797217
 Si        -0.7454839958       18.6840876319       13.2728768369
 Si         0.6965877852        5.1793527556        2.4720590199
 Si        12.5958711465       16.4714339414        0.4812215615
 Si         2.8237440459        8.3753955946       15.8799221098
 Si        16.6486595366       12.1069732529       14.3279518254
 Si        15.6320388452       12.8928203432        0.7246275289
 Si        10.9315960651        0.1271890734       15.0423310810
 Si         3.4616942394        3.8165608506       12.9682750856
 Si        11.0158235148        6.8076831828       16.5180209961
 Si        13.3422202441        9.0414797701       16.9697692708
 Si         1.0816550295       11.3045189364        2.1969527099
 Si         0.7042166873       16.3747575626        9.4184233668
 Se         8.0410205809        4.7398573779        9.5918524461
 Se         4.7623505961        7.6309538089        3.5375906721
 Se         5.1425846855        4.4350089585        6.2380372926
 Se        10.9680609491        6.8386880275       11.6566888114
 Se         7.7397533788        4.5327351334        2.3557283354
 Se        11.0070927260        1.2772592156        7.8880768578
 Se         3.6761337998       11.0471013217       10.5561006319
 Se         9.0832176897        7.6370829026        4.6449258851
 Se         2.2203865794        7.6918809250        8.5185882548
 Se         8.3663014558       11.0928338334       11.5545362499
 Se        12.2334055408        5.6241538236        2.9854674194
 Se        11.3532105844        5.1782936970        7.4681844517
 Se        13.8557960486        8.0594884791        9.5080931737
 Se         6.6966297710        7.4364007533       12.5234750675
 Se        13.2002627647        1.7205806106        3.7576320393
 Se        14.9780730551        3.7577640724        9.8479217951
 Se         6.6308967493       11.0567062252        4.3019302360
 Se         2.6372888444       11.7358297182        6.6756127224
 Se         6.5043392107       13.0121362715        8.2577564135
 Se         9.9750474579        9.1228865551        1.3452766996
 Se         6.2452564211        8.5004003710        7.9912647095
 Se        10.3454441060        9.7212288364        8.5200305216
 Se         6.3005035947       14.4808421146       12.8626238832
 Se        15.0412915041        8.7384337374        2.2005376071
 Se        12.5049920933        9.1233643296        5.0551866979
 Se        17.7948579807        7.6413144449       10.6867483779
 Se        12.5897442173       11.1829135726       12.2038232684
 Se        15.3266294332        5.6335679738        5.7354996211
 Se         7.7971137256       15.6704999969        6.0131354478
 Se        10.4143960514       14.4133938387        9.8867453256
 Se        10.1232499077       12.5460767620        5.6387322086
 Se        14.0955433085       12.7886589958        8.0984681358
 Se        17.0304068970        9.4477144840        6.4662932648
 Cd         6.5324186503        8.6548271204        5.3851144147
 Cd         6.3540027710        5.6363248528        4.2446410129
 Cd         6.2687254789        3.2358841276        8.2781047009
 Cd         6.0906280353        5.1974733412       11.3504262818
 Cd        11.1696090178        1.8272998619        5.4112102434
 Cd         9.9580746198        3.0542881692        9.7660262047
 Cd         0.6032581687        8.9776984476       10.0783557177
 Cd         9.8290893482        9.9738145573        5.5929243461
 Cd         3.8207162602        9.6519406837        8.2591624036
 Cd         5.1115238835        9.5203838029       12.0339617361
 Cd         8.3493491832        6.8673608188        1.4002168639
 Cd        14.5950458303        3.1395330524        5.3029202115
 Cd        10.9202865767        7.1853160960        8.9814671162
 Cd         7.0349290587       12.0987403637       13.6223357870
 Cd        14.9233370047        6.0100632617        2.3432371859
 Cd        12.9704065007        2.8935428408        8.4601467401
 Cd         5.2021557979       12.1737659800        6.1122419239
 Cd         5.1829493893       13.2821414063       10.7973790697
 Cd         8.6036278442       14.7946690792       11.6361439194
 Cd        10.4381217389       10.2391704268       -0.7640153765
 Cd        11.8149694860        6.6507610047        5.2615882371
 Cd         9.1043243815        8.6596548517       11.5916907707
 Cd        10.8537082291       11.7181302253       10.1967789530
 Cd        12.3504973790        8.3550064678        2.2953199573
 Cd        15.0576323597        8.4164478432        4.9967226318
 Cd        13.0003033012        8.5442332797       12.0494134929
 Cd        16.2707107157        9.0824677980        9.1025652008
 Cd        14.7846728925        5.9199066176        8.2626453229
 Cd         9.3667855483       14.4801553952        4.1019390425
 Cd         8.9841581788       14.0748690842        7.8454368905
 Cd        12.4302649201       13.6984242616        6.1842288660
 Cd         7.6341003825       10.6431308846        8.8806604436
 Cd        16.1531734627       12.0188051390        6.7631520667
