426
 i =     7000, time =    14000.000, E =     -8405.9011806678
  O         7.9363665211       -0.3551091563       17.7823205300
  O        14.1470740872        0.6809467732        0.3884398281
  O         4.5704952155       13.2135922680        1.2142640911
  O         2.8023813745       16.1808222499       13.0153495385
  O        11.0727768714        3.2960750766       16.3282996739
  O        17.9132018186       15.0350116725        2.5146784400
  O        17.6064721211       11.9068688652       12.8237860042
  O        11.2501594877        0.9457886628       13.9230287414
  O        11.1712441687       13.4566643824       14.8418613528
  O        -0.4107267450       -0.1832746176        1.6677919984
  O         2.7529476139        4.5325033856       12.1317562736
  O         8.9083377609       13.0010044435       16.4256293354
  O         4.4722594784       16.1574346344        5.3716125927
  O        13.7533985521       16.7280130269       16.2622290538
  O        18.4014613105        1.2205272924        9.6901273890
  O        16.6969783825       17.2064169902        4.0384021284
  O         5.5615794543       17.8435886945       14.3924956837
  O         4.4626468863        0.5165126221        2.2830611694
  O         2.1299323452        9.7301336598       -0.8099169040
  O         7.9130500311       14.8285045664        2.3328935236
  O         0.1487037417       17.5111358064        3.6318347844
  O         1.2396525409        6.5658011478        2.9473914207
  O         8.2496310363        2.2570327610       17.0558408606
  O        10.1293578105        1.0064203497        3.5869143039
  O        12.8833866197       15.9092805131        6.7406532311
  O         0.3480358890       15.2113731697        5.1620554875
  O         4.6491954093        0.1720817892       11.0948553617
  O        18.7345903929       18.2634012451       17.1987702332
  O        17.5149174870        4.0199267474       -1.8878343055
  O         6.4574531050        1.9158931207       12.1568733075
  O         3.2091558079        9.7816806034       15.8797063072
  O         7.0251118706       13.6007866839        0.2894726489
  O         1.5290457017        4.7070346615        1.0018267013
  O         4.3737361948        7.4366348469       16.4455212089
  O        15.7379513425       16.1284569867        8.5768882087
  O         1.3906870928       16.3264531905       15.4197708247
  O         4.4860753814        0.6062291410       15.8456351132
  O        15.4733573393       18.2933166010        5.9858181336
  O        14.6188026258        5.8825390654       16.3727882533
  O         1.8537257251        3.8890042037        3.3670009338
  O        14.2891221933        7.9867354749       -1.4811565049
  O        -0.5166793116       14.2565247806       12.6956192882
  O         1.5880632310        4.7827375992       -1.6791631350
  O         0.1240820621       11.4934786435        3.1704126707
  O         4.3891405845       -0.4500442003       -0.2815640369
  O         0.6499269230        4.7964286782       10.5097974071
  O        10.0181729046        0.4551597464       16.3497184493
  O         4.5648331588       16.9100011000       10.9692979628
  O        16.4386789165       12.5044899864        4.3816968309
  O        12.9023182967       16.8879123067        2.0892312258
  O        17.1819042517       -1.2117783422        9.6836791737
  O        16.1850353805        4.1748391620        1.5656362505
  O         3.2226230917       16.6044934055       -0.2654152640
  O        -0.5131776368        5.7681392135       -0.2927868184
  O         3.9495770399       12.6120809080       15.7734655639
  O        14.0561411457       14.8772510185       11.7744564274
  O        18.1761231630        2.3861697036        1.1479857560
  O         6.1802991418        1.0363788456        7.5356171409
  O         2.1888349748       14.6019773402        1.3468746786
  O        18.7002295895        4.6355031217        2.6447243185
  O        11.9397230209        8.1048349144       16.5114855939
  O         8.1811623460       -0.5728939615        2.4229335471
  O         6.3033156044       18.4241338541        9.3216146584
  O        10.1738812973       10.6346432507       16.7625163082
  O         3.6330753825       -1.6206191677        7.3049409571
  O         0.1715621656       11.5198166121       -1.8111330053
  O        12.4099194921       17.4563460097        4.5789207114
  O         2.9429236002        3.5072315863       14.6491335365
  O         3.2207676166        1.8454207097        0.0306493063
  O        13.7509746353       13.2432803602        4.3197866042
  O        18.0566235394        2.7846899121        5.8585577036
  O        12.0909152583       15.0485210770        0.2031704666
  O        18.6819222815       -0.4186937143       11.6169489397
  O         5.6978419548       11.2242068560       -0.1073733931
  O         8.9430761920       -0.8624099938        4.9843604277
  O        16.2103189539        0.8676819587       11.1357043038
  O        14.7774639573       -0.2951375351       -1.9629272082
  O         6.0752538478       -1.3018409144        6.4103118772
  O         9.8954079081        1.3189189797       -0.4767086053
  O         4.1449870146       -0.5073371609        4.6913974690
  O        17.3787742075        5.6298262839       14.2726456529
  O        10.6531659344       17.4619936168        6.6924991739
  O         4.9290475954       13.7426134863       -1.3288107710
  O         2.3356522866       16.4351934173        3.7882365265
  O        13.5500087232        3.7817535378       -2.0153585559
  O         5.2904738638        6.3038959941       -0.5684631921
  O         5.8635922887        1.7518164756        0.3287746282
  O         1.2104656305        9.5091518276       12.9838744590
  O         8.2822763453       -1.0786675926        7.6624349540
  O         3.2873467066       14.4128803504       11.1430074678
  O         0.9093369952       16.8786761257        1.1286598017
  O         1.6967825200        7.8571228404       16.8686469570
  O         9.5854853507       13.9708313523        0.3944748116
  O        16.8246039204       11.0389180166        9.8782755865
  O        17.3985888825        1.5173455434       16.2480606334
  O         9.4093813561       15.5413508122       15.5650677800
  O        14.6269556085        1.3348843743        7.0144758531
  O        10.6635843134       17.7839954903       14.8519787820
  O         7.9915052070       17.1538236011       14.1100803703
  O         6.9238008414        7.0781240379       -2.6053898451
  O         3.7588560277       14.1984101225        3.4483683199
  O        10.1402716719       15.9731795805       12.9297895418
  O         1.9334938271       -0.7530777803       -1.6695872102
  O         3.8736057695        2.2240238146       12.5057677434
  O        15.6042809056        3.3944099107       15.7209186924
  O         2.9078842575       18.2371177841       14.6254646795
  O        17.2855871834        0.3600310457        4.7414347749
  O        17.0614009146       -0.7357934346       13.7711694692
  O         8.3447001760       10.8787338879       14.8458628875
  O        13.9466767111        5.6353540604       -0.3132095884
  O         4.9234368139        2.6723338310       10.1338266712
  O         0.3058700876       17.1799721077        8.5101291616
  O        12.9630386996       18.6256704630        6.7706714061
  O        11.5983945316        5.7032652821       -1.5799502988
  O        14.8196635329       -0.7540305991        8.5955605923
  O        16.5756896934       17.0789038947       15.8742466333
  O         7.7915284286       16.0447400541       -0.1141141270
  O         0.5832621100       13.6568698258       15.8589585031
  O         5.1909392294       10.7930691170       16.6115248870
  O         1.9973254165       16.7359414414       10.4665679709
  O         4.8641919527       16.4606236545        2.7126647883
  O         1.3191289770        3.1746354260        5.8138863530
  O         1.7597210748        1.3613864663        9.4198931851
  O         8.3324780120        4.7895357068       15.9311083659
  O        14.8610833515        8.0987295545       13.2298334812
  O         1.2338931235        8.3431773905        4.9074168985
  O         5.8804319744        3.5048903348       16.7300697292
  O        10.7894826556       14.6579530778       17.4081344506
  O        15.6514582561       14.9848040718        3.7951491471
  O        17.7395639936       11.9719974908       15.6922842111
  O         0.0607634409       10.7772243378        8.9428413739
  O        11.1850618618        5.7210117968       15.1328059064
  O         0.9123731604       18.0650343766       13.3097221184
  O        18.6311782078       12.7893223710       10.4756110663
  O         1.6742668822        7.1231733224        0.0051860795
  O        18.3849451975        6.1617168919       16.4981303215
  O        -0.1194797486        2.8729822111        8.0479117299
  O         2.5794950527        7.7211324601       14.4756662014
  O        -0.3731527838        0.6231396317       14.0571906930
  O         0.8825310655       12.0816358097       12.4828172827
  O        14.2076387484       12.0385951181       -0.0450392941
  O        10.5305439166       17.9190260279        2.7497120147
  O         1.4178612476        6.8466592920       12.4064001250
  O        -0.0135028685        0.9320220970       -0.5783240523
  O        18.7115061725       15.6999157935       16.6253968569
  O         0.3911642373        0.2358850589        7.5432042916
  O         7.3617655990        0.3263375817       14.0252994353
  O         9.0304576734        2.0163544256       12.6468650764
  O        18.2584009544       16.7325976942       13.0233384286
  O        16.3840190884        6.3468594244       -0.9489777535
  O        14.7232831182       -0.5845189057       14.8485887544
  O        13.4017058419       12.6805895765       16.7968673434
  O        15.5739676056        2.1320618371       -1.3535307716
  O        -0.1863944853        7.6088407028       14.3769637157
  O        17.2500400799        3.4542723737       12.8591434945
  O         1.2225752312       17.5550628149        6.0596191525
  O         2.6335445406       12.0109859871        2.5287951931
  O        12.7897975032       10.2768483342       -1.6010908460
  O        16.5788728307       15.2244883963       11.5956700207
  O         4.2804032737       17.4757936398       16.8253626935
  O        14.2039572939       16.5707122733       -0.1806117809
  O        11.6472285060       12.4912719008       -0.3972444488
  O         7.3008127314        2.8998888460       14.5123366770
  O         6.7679662360       18.0849023426       11.9291513325
  O        16.8960000302       12.1163935297        0.2265611073
  O         2.7163474904       14.6809232343       16.7323591988
  O        16.0205835782       16.6365187555        1.6303658357
  O         2.1994561475       -0.5423106652        2.5636568185
  O         0.3284084721        4.7731040037       13.3649491154
  O        14.9542861543       17.2647002032       10.8775493108
  O        16.6854187176        8.0421136916       15.2166244584
  O         7.6331458771       10.6912703456       17.3748398492
  O        16.0163283616       10.3970912152       14.1183304473
  O        16.8009136993       16.6129966268       -1.0035814783
  O         1.0133530534       11.5136037822        0.6174931036
  O        18.7483729272       15.9185228936       10.4292021877
  O        19.2796200628        5.1976218545        6.5694595356
  O        16.8147552932        0.2867082035        0.0076614627
  O        17.9985286538       -1.4899780313        6.4845546458
  O        17.9538047829       12.6719759537        7.8905949809
  O         0.9684458058       15.3548043293       -1.0310681952
  O         2.7749527808       12.2737633286       -1.2462115529
  O         5.4309915659       10.6495908670       14.1404443340
  O        11.1806256655       15.3217284543        3.5216620611
  O         5.9836192328        8.9088635691       -1.1086528504
  O         2.9998041254       11.2647608698       13.8822975082
  O        17.0542194507        2.5770553773        3.4521793735
  O        12.4461523289       -0.2415155709       16.2473957322
  O        -0.7870908521        8.2883054516        3.0736870544
  O        15.7771809751       13.1090718408       14.1863719734
  O        15.1543030564       12.9090973852        2.0749513188
  O        13.2358319310        4.0092155575       14.8009653624
  O        11.3446198051        1.9918377410       11.4705891784
  O        18.8935253994        3.2798480773       15.0538736179
  O         9.5510646428        6.9998167141       16.6934971402
  O        10.8802657179        3.5683400711       13.6772154884
  O        15.3572362903       16.6754422049       13.4482024132
  O        11.7060127356       17.6257279219       -0.2586391884
  O        -0.3948696868        8.5598086952       -0.7848973931
  O         0.1566096996        1.7516746900        3.9289653927
  O         5.0997060203        4.5016533388       13.3883196816
  O        14.2317561140        9.2628778069       15.6415283988
  O        15.5704991022       14.3976592161       -0.1153443551
  O         0.6570359926        1.2747695671       16.4202815494
  O         1.2300321234       14.7358369317        8.8086361181
  O        12.0387590368        3.5718663389        0.1010053663
  O         0.6450224657       11.1863200781       14.9634072760
  O         8.2743283149        5.2744804892       -0.9207273381
  O         2.7359972170        1.6152616579        4.0773010898
  O         1.6979542869        9.4409871835        2.3892857137
 Na        10.9007069106       11.0863456633       14.4291300440
 Na        18.6951825115       13.8515239235        0.5350604816
 Na        14.3823407812        2.8544207825        1.1366889400
 Na        17.4969333146       10.3082585167       -1.0216019207
 Na        18.4583191720        7.1267256793        5.2594634075
 Na        11.6883481581        0.2541928475        0.8654871700
 Na         6.0078847059        4.1205872006       -0.1944035103
 Na        12.3586867003       14.9449976410       13.3712189482
 Na        -0.1702479153        5.7787129449        8.7526514638
 Na         0.4394149418       13.7825826290        6.9150599322
 Na        12.6460256021       10.5595505412        7.3814133628
 Na         5.3167368040        5.5346821306       15.2962864737
 Na        10.8040073236        3.0404559494        2.3844940760
 Na        13.7073525568        0.6053416089       10.9672699821
 Na        16.0829290470        1.4903426996       13.3919900116
 Na         0.6689006379        9.5666586225        6.6540628129
 Na         9.8408843272        3.4372213241       -0.8856876592
 Na         3.4876650712       13.7927807142       13.6001427297
 Na         8.3819410817        6.4092820208        7.2772655298
 Na        17.2009915558       14.5850939597        8.9913640770
 Na        -3.1092786800        9.8548710604       11.8304078440
 Na         8.9976964797        5.0560747728       13.7224085341
 Na         3.1461498644       15.2331922303        7.6984479347
 Na        15.6268991931        6.0058472407       12.5249026657
 Na         5.7423234308       17.2091462311        0.7228513733
 Na         3.3548437230       10.1072376957        4.2337257336
 Na         2.6801521882        3.5125910778        9.5622016677
 Na         1.2859537193        2.7720038900        0.0163551141
 Na        17.8654179001        7.3576883608        1.1339015919
 Na         1.6083201536       12.5433057288        9.7017931706
 Na         6.6011386705        9.6486760963        1.6489449310
 Na        14.0719352450       14.8036056659       17.3188647249
 Na        13.2316091774       15.2911562266        9.1254781577
 Na         7.6242725192       17.0307609293       16.7838660801
 Na         6.9986517186       -2.1555728287        3.5278651235
 Na        12.3045466070        1.7799124966       -1.7344217501
 Na         6.0100858322        0.8826738683       -1.9422867285
 Na         2.3441903653        6.3181485385        5.5818439208
 Na        14.9325907261       12.9164584939       10.9713999032
 Na         6.0625093886       14.0818688439        3.0150882390
 Na        14.9410440420       18.9117351213        2.4051170993
 Na         3.3673050383        7.2911237330        1.3160191760
 Na        -0.7631954568       13.4545377292        3.8828658927
 Na         2.3333779848        1.1048140521       14.3489361028
 Na         3.6965388390        0.1707998209        8.7470340875
 Na        13.7107768745       12.1475142305       14.8679107450
 Na        15.3548207254       15.9367091149        6.1875931614
 Na        16.4911891142        2.3191012449        7.8464510023
 Na         9.0915136118       -1.4373096776        0.2536456332
 Na         5.0948365834        1.7457002226        5.6682147407
 Na         7.6479093814        1.2490406866        1.4951688349
 Na         3.5877423540        2.6262402998       16.8334237036
 Na        17.9641828918        3.3319919255       10.7550086456
 Na        12.4271584902       13.5577197965        2.4773157831
 Na        11.5066052817       16.7011344417       -2.3606658009
 Na         6.9678912872        9.0842481867       15.1336702430
 Na         1.8017860622       -0.3775990266       11.0398775131
 Na        17.1835566648       10.4553369441        3.2240692779
 Na        17.0665324031       14.8329665507       14.7328754450
 Na         1.4597051570        4.9779317011       15.5675005496
 Si        -0.5976488779       12.7225579234       12.0769766102
 Si         3.3881995167       18.0296741264       -1.2280269552
 Si         5.5592530234       13.0005343177       -0.0164147744
 Si        14.7801848367        6.4224723062       -1.4443554325
 Si         0.7901362512        8.3017645993        3.3371373741
 Si        11.7136270670       16.8273183794        3.2313664267
 Si         5.5720378061       18.2176054392       10.7919435271
 Si         1.5536287991       11.2535688565       -0.8736374699
 Si         0.9429920238       16.5774158507        4.7432517883
 Si         3.6019264885       13.3406971450       17.1363794387
 Si        15.1233539194       15.9878959614       11.8715139473
 Si        18.1656689660       11.6921616626        9.2167436159
 Si        18.2141561579        0.7887303352        0.6393114335
 Si         8.7216836565       11.3725704278       16.3503006206
 Si         6.7478365028       -0.4665424053        7.6955324206
 Si        15.7076961761       16.0129103306        0.0905244408
 Si         0.3551104842        1.4441002033        8.6548028078
 Si         0.5182422015        0.0208764160       -1.8499513291
 Si        17.9209088901        6.9530317217       15.1118345309
 Si         9.4374252040       -0.4311587606        3.4329149688
 Si        15.2180542257       13.3844135216        3.6991633440
 Si         5.5938913483        7.4141127853       -1.6830602793
 Si         4.4633438901        1.0840853416        0.6180871872
 Si        10.6482868912        2.0577019429       12.8956458444
 Si         4.9654676177        1.7454470242       11.4311126243
 Si         3.2075285623       15.9654919089       11.3786016017
 Si        16.7123381714       15.9104533936        2.9693440016
 Si         1.1500829903        5.5734236295       -0.3608928317
 Si        10.9926260904       14.0109039681       -0.4207910577
 Si         1.8154425719       15.8749257955        0.3235824490
 Si        13.0914633628       11.9381233400       -1.2380145991
 Si         1.1192579944        8.3676341952       -1.0170542243
 Si        17.7899173794        5.5836548785       -1.4963212809
 Si         8.1436194843       14.7861338215        0.7599914591
 Si         1.0039812357       15.1989467682       16.6200889025
 Si        17.7483558079       16.9022166028       17.0484801603
 Si         3.3584185753        0.2350016150        3.4491705646
 Si         6.8954442878       18.1713898856       13.5967986485
 Si        17.4821901944        0.0974739163       10.5564639158
 Si        13.8976904828       -1.0842755794       16.2708102782
 Si         3.1738863155       13.5308014225        2.0884421796
 Si        12.6457838989        4.5721044294       -0.9207731080
 Si         7.4912386308        1.8258588319       13.3470033705
 Si         3.8556374627       15.9004783926        3.8046741272
 Si         9.0161916748        0.8462346086       17.6581229812
 Si         8.2503821353        6.0396815384       -2.3396816326
 Si        12.2195337529       17.2167103653        6.2397149050
 Si        15.9290276938       17.7413011355       14.4583301569
 Si        16.9715450063       -1.1081941971        5.2923305230
 Si         1.5041912450        2.6243218961        4.2953508753
 Si         9.5376237568       16.5684869979       14.3010323001
 Si         4.3220216611       -0.9218817218       15.4654924296
 Si         7.3416208190        3.3369518112       16.1395978149
 Si        14.2866700747        4.2893326564       15.9885142257
 Si         9.0847948187       -1.7306607129        6.4011988854
 Si        18.1981883022       15.5642766109       11.9068787116
 Si        15.2975242409        0.5768050066       -0.6744106554
 Si        -0.0094343448       12.1804048554       16.0481938142
 Si         0.7310003419       18.0787060803        2.3054107038
 Si        15.4512572843        8.8649271172       14.5424572020
 Si        11.6213497880        4.0678279490       15.0844082091
 Si        17.9810659666        1.8250723108        4.5194759957
 Si        18.1757259395        4.1582484217       13.8442282447
 Si        15.7204905286       17.4901534479        9.3883322085
 Si         1.2137818638        5.1970686856       11.9585259069
 Si         1.5058462903       11.0488475933       13.5729888424
 Si        -0.1319313955        3.6236479967        6.5493043301
 Si        18.7996613044        1.6307366307       15.3219033567
 Si         1.1915789153        7.9017095906       13.5875650029
 Si         4.1990078122       11.0113098924       15.2162768072
 Si        16.5777398239        2.7835098036       16.9496850673
 Si         0.1631647146       -1.3356483465        7.1603697079
 Si        17.4985288547        3.5565422063        2.1693345117
 Si        14.5191167190       -0.2473249632        7.0464724376
 Si         1.9135834762       17.0749850839       14.0850678047
 Si         4.5196496009       -1.6221437203        5.9877296941
 Si        10.1458621181       14.0426165494       15.9445886692
 Si         6.0837782228       10.4664332605       -1.5515881452
 Si        -0.7608223469       18.4879824441       13.1965263018
 Si         0.9556551908        5.0427717361        2.4695128238
 Si        12.6751054278       16.6322995847        0.4392621281
 Si         2.9986103007        8.2734873337       16.0233672999
 Si        16.7632267159       11.8672311635       14.2607486272
 Si        15.5470256932       12.7656186989        0.5458779161
 Si        11.0942750411       -0.0793067672       15.2721000699
 Si         3.6239281462        3.7199337776       13.2323369019
 Si        11.1248795136        6.6410977581       16.5353838375
 Si        13.3105851006        8.8988063588       16.9700220656
 Si         1.2491594112       11.1406774878        2.1996714898
 Si         0.7728354386       16.0444111170        9.5935973463
 Se         8.0232108224        4.6575721692        9.8520232930
 Se         5.0668162527        7.8222285049        3.6148069762
 Se         4.9946721824        4.3961957060        6.3048319489
 Se        10.8901661135        6.9132337009       11.9417632282
 Se         8.0030646960        4.2111322197        2.6765850254
 Se        10.8870728436        1.2697952690        8.0236828902
 Se         3.7928030902       10.8992561401       10.5585639372
 Se         8.9463570997        7.4374462793        4.5227271150
 Se         2.1667908826        7.5579003467        8.4482492643
 Se         8.5170634657       10.9679425978       11.4201000191
 Se        12.0650074196        5.4495001210        2.9846565826
 Se        11.4768737725        5.4963846884        7.6800663782
 Se        13.9108163043        8.3644674350        9.1565243467
 Se         6.5824280059        7.3465046204       12.9199246627
 Se        13.4137634669        1.6267495972        3.8848747019
 Se        14.7060738645        3.8525044547        9.7025173375
 Se         6.5570913051       11.4309457311        4.2614558075
 Se         2.7969783962       11.6831226325        6.8489770626
 Se         6.6639747660       13.1930646227        8.3071942682
 Se         9.6920530539        8.5640304039        1.3843478006
 Se         6.2859481130        8.5813469428        7.8249004368
 Se        10.0904579713        9.7459531140        8.3118838991
 Se         6.5164907450       14.4898478821       12.6076881446
 Se        15.1097395189        8.5025193102        2.1130611665
 Se        12.5326951985        9.2024297227        4.8253452998
 Se        17.7058290219        7.4950487897       10.5087675567
 Se        12.8449597346       10.9800225999       12.3279717157
 Se        15.4824703072        5.8977680104        5.6274797007
 Se         7.8850223939       15.7235706432        6.0625087282
 Se        10.7671577104       14.1560560668       10.0278853618
 Se        10.1515791586       12.5955035751        5.7109988857
 Se        14.1399373285       12.7075171047        8.0812523554
 Se        17.1412299163        9.3308504572        6.2350191854
 Cd         6.7471320075        8.9578158757        5.3284804894
 Cd         6.1041753904        5.4426177498        4.1497492231
 Cd         6.2700203704        3.2597568615        8.3243705131
 Cd         6.1234837676        4.8486623026       11.6440314410
 Cd        11.3660966720        1.2716843644        5.4624891445
 Cd        10.1214860806        2.9391003602        9.9677462895
 Cd         0.6142551430        8.9256168235       10.0353541286
 Cd         9.6487148367        9.8783998667        5.5382553635
 Cd         3.8119391719        9.5161486234        8.1062321690
 Cd         4.9111323968        9.6144107093       12.2466648075
 Cd         8.4031510289        6.2522821183        1.0581273644
 Cd        13.9580130188        3.9177909045        4.8614460841
 Cd        11.1755747237        7.5172364924        9.3009376100
 Cd         7.2153186080       12.1972203676       13.4965094256
 Cd        14.8160072376        5.8846895585        2.3315335894
 Cd        13.0362350508        2.4981190924        8.4114453035
 Cd         5.2925928193       12.0623655661        6.3645581507
 Cd         5.1070901400       13.2297944966       10.5726684062
 Cd         8.8278033761       14.9219481059       11.5503446211
 Cd         9.9251736784        9.6155709689       -0.8125133206
 Cd        11.5181336814        6.6902533845        5.3288440117
 Cd         8.8409728127        8.4798330069       12.1524074214
 Cd        10.9218835580       11.4324347808       10.6495487435
 Cd        12.3297814883        8.2453455572        2.2586510561
 Cd        14.9555489445        8.5948231582        5.0323292833
 Cd        13.0819566113        8.4462762808       11.9324901040
 Cd        16.5123236994        8.9449732060        8.7187643452
 Cd        14.1715771900        5.9519254186        8.0379308474
 Cd         9.2594749682       14.5295396606        4.1329763104
 Cd         9.3315242510       14.1107504318        7.6837822154
 Cd        12.6245155151       13.7685562842        6.1776644949
 Cd         7.4664089860       10.7617325437        8.6654466848
 Cd        16.2572134846       12.2185127230        6.5237928970
