426
 i =     6900, time =    13800.000, E =     -8405.9016550078
  O         8.1039740483       -0.4548408291       17.7336085945
  O        14.0430853975        0.4123335946        0.3601421562
  O         4.6269275273       13.2194297191        1.2968192222
  O         2.4118117248       16.1720489426       12.8007153831
  O        11.2264743710        3.2333472683       16.2468940481
  O        17.9430401312       15.2338046072        2.5918899257
  O        17.7175829630       11.8526452226       12.9830314418
  O        11.4030174960        1.0938790815       13.9111136077
  O        11.4007601269       13.4362660660       14.9211023067
  O        -0.4499946997       -0.1949405876        1.6122933443
  O         2.5337909933        4.4622129989       11.9763026082
  O         9.1814783035       13.0550827143       16.5047846750
  O         4.4647028952       16.1780982483        5.3241206811
  O        13.5811294555       16.9366950200       16.3115587755
  O        18.4293572457        1.3472639083        9.5445490422
  O        16.6867435486       17.4866648823        3.9189708529
  O         5.8781673209       17.9462903279       14.9432824427
  O         4.5808847205        0.4554592681        2.1799879394
  O         2.0946948740        9.7718703441       -0.7472029916
  O         7.9909759109       14.6105231585        2.1999003411
  O         0.1161992415       17.6145076858        3.5711222738
  O         1.1084213167        6.6544903424        2.8617317280
  O         8.2220114525        2.1346192671       17.0815366007
  O        10.2815005758        0.9914576682        3.3881394597
  O        12.6357111610       15.9861020366        6.9057174699
  O         0.5103682543       15.2478544018        5.0747115842
  O         4.9032349460        0.3864310801       11.1521774145
  O        18.5819959762       18.2539137618       17.2227340025
  O        17.3646020170        3.8958358643       -2.0390247691
  O         6.6374282882        2.0163316996       12.2745773881
  O         3.0319897443        9.8315915332       15.6880742614
  O         7.1164351694       13.4444434130       -0.0101426255
  O         1.4870941881        4.6850315258        0.9851906070
  O         4.4205218644        7.7373039919       16.6001183027
  O        15.6106285541       16.2009847373        8.6094328733
  O         1.4332536406       16.1743948285       15.3449042083
  O         4.2500552075        0.6587557585       15.7970682266
  O        15.3555323847       18.4358770064        5.8568699316
  O        14.6981296388        5.6839549595       16.6935173325
  O         1.8118186771        4.0961649474        3.4274427128
  O        14.5089658098        7.8856388675       -1.2192412442
  O        -0.3772149446       14.2936110978       12.5542616349
  O         1.8282161307        4.7071249612       -1.6550685337
  O         0.0141715959       11.5904213682        3.3233970259
  O         4.3150123582       -0.3288122725       -0.4249877480
  O         0.3924534103        5.0318220650       10.5882666812
  O        10.0510905361        0.3856485285       16.1775827710
  O         4.4853592111       17.2215097776       11.3813457227
  O        16.5599274575       12.5677466389        4.6062674697
  O        12.8840810202       16.7470579267        2.1311051561
  O        17.1788667791       -1.1232653288        9.6889930651
  O        16.1854282372        4.1522871889        1.6539522791
  O         3.1343440211       16.6063749833       -0.3030148492
  O        -0.5579998472        5.4748906765       -0.3837432858
  O         3.8242905672       12.5074563754       15.8297184386
  O        14.3824143180       14.8619146607       11.6316702118
  O        18.2275124766        2.4082972093        1.0500894899
  O         6.0580547992        1.0438872885        7.7122480689
  O         2.2859181353       14.6481387535        1.2841986368
  O        18.6712603096        4.6324404423        2.5699854018
  O        12.1557442387        7.9270472919       16.8416800301
  O         8.1285467683       -0.4668030720        2.4024933624
  O         6.1380379939       18.1972790399        9.3599426910
  O        10.3022746798       10.8027216700       16.7802810682
  O         3.4050183295       -1.6883370578        7.2396423252
  O         0.1976882566       11.6562728612       -1.7237168944
  O        12.1502535225       17.3849314215        4.6362115277
  O         2.7964172137        3.4902217677       14.5849102218
  O         3.4026155223        2.0525409178        0.2223420291
  O        13.8967850822       13.2318920942        4.5086455421
  O        18.2716995895        2.9331215292        6.0027248745
  O        12.2002309992       14.8287495826        0.3504821578
  O        18.9010594717       -0.2211393267       11.5768246173
  O         5.6816723873       11.3520592891       -0.2540099215
  O         8.9150936549       -0.7938355741        4.9138334770
  O        16.3472041714        0.9788083439       11.1327152368
  O        15.0444147959       -0.3064482475       -2.0535138953
  O         5.8730461020       -1.2384673432        6.4329896760
  O        10.0426671520        1.0698415499       -0.5721767285
  O         4.1174422359       -0.3840361809        4.6379342872
  O        17.4502903199        5.7034743157       14.2241708954
  O        10.5196106041       17.6273039975        6.7347508633
  O         4.8350761219       13.7933252170       -1.2768569472
  O         2.3862035479       16.6712811896        3.7438590732
  O        13.5209359987        3.6857258411       -1.7879693610
  O         5.1097441884        6.4199040516       -0.6443026738
  O         6.0111408071        1.6076350319        0.3157460814
  O         1.3742352191        9.3731757403       13.1548902663
  O         8.1878164109       -0.7905079511        7.5626628206
  O         3.4656115088       14.6471178142       10.9246394322
  O         0.9828434897       16.9088329527        1.2076568884
  O         1.6449745216        7.7477238938       16.8200755228
  O         9.6989633643       13.9324095434        0.1964452708
  O        16.7901455594       11.0947379638        9.9050016887
  O        17.3310351730        1.4636952345       16.0849723024
  O         9.7381425033       15.5413286899       15.5177796064
  O        14.5854680586        1.4574440444        7.0097424184
  O        10.8062227837       17.8892323419       14.6469993039
  O         8.2429190271       17.1395011579       14.0168313846
  O         6.9041240789        7.0824949784       -2.6509864853
  O         3.6453027927       14.3404956531        3.5382919168
  O        10.3526340785       15.9225629891       12.9061561180
  O         1.8772070785       -0.7386017396       -1.6484177448
  O         3.7696912187        2.1799861747       12.5859565145
  O        15.3695665100        3.1674684568       15.8723178333
  O         3.2865517099       17.9011506732       14.5214690593
  O        17.4712918742        0.6008624590        5.0521645082
  O        17.3810247835       -0.9319026744       13.8545028808
  O         8.4683905727       10.8519784440       15.0352588699
  O        13.9913732605        5.4764760287       -0.1519126911
  O         5.0614982229        2.9803929020       10.2216881541
  O         0.2311919688       17.2763595082        8.3305881715
  O        12.9074757289       18.7239603213        6.6474309259
  O        11.5818310338        5.6810646904       -1.2798195116
  O        14.7598761436       -0.5365255274        8.5388638331
  O        16.6706605016       16.8497494771       15.8563516236
  O         8.0231520465       15.9856548673       -0.0605088273
  O         0.4358009771       13.6027997395       15.9767293132
  O         5.3139322038       10.4938213018       16.5654930203
  O         2.0961023378       16.9538400125       10.2298372081
  O         4.8904687732       16.5564899666        2.7613402743
  O         1.5676360321        3.1006671888        5.8158935927
  O         1.8517823248        1.2066567481        9.1490756679
  O         8.3606921742        4.7854912860       16.3321419436
  O        14.9061605680        8.1606987149       13.3860921905
  O         1.4539912396        8.5391434681        4.7783146456
  O         5.9570534787        3.6953699522       16.8086985661
  O        11.1395061009       14.4528313037       17.3929913028
  O        15.7557765976       15.1053368031        4.2514875271
  O        17.7728117144       11.8499452523       15.7185714929
  O        -0.0654588658       10.5991625119        8.8593866917
  O        11.0822042774        5.8208890307       15.3929805987
  O         1.0422879037       18.4086431707       13.7635348580
  O        18.6782711646       12.6675064292       10.5477736335
  O         1.6092736697        7.0920933026       -0.1955609307
  O        18.1867016435        6.3035644216       16.6399713445
  O         0.3203597142        3.0609301010        8.1010691870
  O         2.6262100798        7.4772938720       14.5735595479
  O        -0.5717496219        1.0004856167       13.8506252198
  O         0.9073321077       11.9801474784       12.6141149855
  O        14.2287413675       12.0117244244        0.3309922001
  O        10.5315446945       17.8811179004        2.6248524589
  O         1.2408499973        6.9273781288       12.2777140075
  O        -0.0550464207        0.9188577175       -0.6421572452
  O        18.7059919239       15.5998256201       16.8176703797
  O         0.0551969968        0.3734795905        7.3874669213
  O         7.5710994378        0.3310011770       14.1822327232
  O         9.1055304409        2.1522977679       12.9047070545
  O        18.8563293715       16.8528588374       12.9739520092
  O        16.3812837851        6.1002915765       -0.7329387138
  O        14.9885616593       -0.6397649728       14.7789362372
  O        13.8399161892       12.5360434198       17.1326207563
  O        15.7845188058        2.0276983483       -1.1371924957
  O        -0.0605933493        7.6050546798       14.5751591315
  O        17.2931152651        3.5659198359       12.8102369329
  O         1.1061945379       17.7793828882        5.8493108014
  O         2.6465135377       12.1458596764        2.6160679591
  O        13.1732434530       10.1311573298       -1.3514937426
  O        16.9206358780       15.5405992616       11.4666362647
  O         4.2039500093       17.5442379308       16.8904347885
  O        14.2030014847       16.4462732952       -0.1912595438
  O        11.8215151281       12.2874925839       -0.3637770985
  O         7.3897644062        3.0003807487       14.6275360620
  O         6.8117912387       18.2113708809       12.1460748582
  O        16.9817711686       11.9180205408        0.4540469964
  O         2.6934296764       14.7049524466       16.8146442193
  O        15.8070311159       16.4817471718        1.7748775506
  O         2.0468727749       -0.2598637059        2.5182532276
  O         0.2945437441        4.8284132803       13.3594827231
  O        14.9934685772       17.3748379189       10.8609138051
  O        16.7586603235        8.1441490691       15.4527317626
  O         7.7029479933       10.8376623816       17.5645607841
  O        16.1770939848       10.2562747926       14.2220378705
  O        16.8162958441       16.6682576580       -0.8954221102
  O         1.0162115621       11.7013819161        0.7733513083
  O        19.1669635318       15.7615235075       10.4465581298
  O        19.5187498219        5.2851810849        6.4767616066
  O        16.6903334436        0.2899519646        0.2445415332
  O        17.9500951209       -1.6061946893        6.3511979498
  O        17.9694447925       12.7779895497        8.0228196709
  O         0.9003373353       15.2078935935       -0.9594748044
  O         2.6836402917       12.3527699610       -1.1070550034
  O         5.3733500753       10.5296371624       14.0557289181
  O        11.1623157631       15.2359397162        3.1941969683
  O         6.0987255393        8.9531992213       -0.9017298561
  O         3.0738938993       11.3849201914       13.7534536284
  O        17.2791206686        2.6377156247        3.4549802777
  O        12.6980260917        0.1587372282       15.9401153672
  O        -0.8145072837        8.4772497593        3.1379430661
  O        15.8646930182       13.0645111428       14.4209432849
  O        15.4061298791       13.1930933438        2.3615847976
  O        13.3016033946        4.4194457324       14.8854261569
  O        11.5002420686        2.2181712974       11.4747606703
  O        18.7762973269        3.2989493410       15.0214965576
  O         9.5994035410        7.2386692062       16.9440393113
  O        11.0644431193        3.7645079709       13.5768843506
  O        15.5831477274       16.3874594391       13.4616207161
  O        11.6564213236       17.4507741297       -0.2731025803
  O        -0.3509276630        8.8339455559       -0.9690167053
  O         0.2312164458        1.9286955332        3.8722612274
  O         4.8325091884        4.6833981921       13.2423819262
  O        14.2574370855        9.2886387315       15.8071486534
  O        15.8868600478       14.2888901707        0.0314436662
  O         0.5576227900        1.0494185081       16.2562427982
  O         1.3717652718       14.8835625026        8.5522253902
  O        12.0365029475        3.5520790353        0.4035329764
  O         0.7380595628       11.0954416593       15.0511096098
  O         8.3856079057        5.7095401823       -0.5972204448
  O         2.9967412309        1.7737345371        3.9519685963
  O         1.5353690176        9.5964659829        2.3921624441
 Na        10.7200831341       11.4225902516       14.2294386258
 Na        18.4974750197       13.5156430727        1.0406004064
 Na        14.4026383863        2.8210410459        1.1590337957
 Na        17.4836701787       10.4308170588       -1.1574196428
 Na        18.2987797092        6.3761685957        4.5803542055
 Na        11.6970856927        0.3578193939        1.0153489253
 Na         5.6119411346        4.0092530421        0.0966535954
 Na        12.4011296922       14.6141028071       12.8162485166
 Na        -0.1167268049        5.8451945916        8.5413978323
 Na         0.3299600960       13.8063619405        6.8411480912
 Na        13.2178982874       10.5525314251        7.7977532067
 Na         5.3256210035        5.6010111598       15.2754208846
 Na        10.8652368977        3.3440887624        2.3358136345
 Na        13.9136525445        0.6110178308       11.1604132548
 Na        16.2959977345        1.4805909288       13.3970824659
 Na         0.6549037423        9.8176445853        6.6725921760
 Na         9.7800197714        3.7273417772       -1.3305692220
 Na         2.5190456476       13.7948632080       13.2509664503
 Na         8.1610829204        6.3925986020        7.2563324905
 Na        17.3051589035       14.8360190008        9.0259470102
 Na        -3.1462864632        9.8498250186       11.8062102261
 Na         9.0920633630        5.0401193570       13.7460571137
 Na         3.5240188835       15.2008719655        7.5399143346
 Na        15.7222059526        6.0207668391       12.6056970114
 Na         5.9995819369       16.9510724766        0.7357707145
 Na         3.1321170004       10.0433101202        4.2577472181
 Na         2.5333265801        3.4780191394        9.8677695390
 Na         1.3479687677        2.5435452428       -0.0053673721
 Na        17.9700862092        7.8291645987        0.9590097421
 Na         1.7929286434       12.9853774407        9.8762464391
 Na         6.4438997683        9.6396935131        1.9386344785
 Na        14.0985094463       14.8136664266       16.8853500240
 Na        13.0572563884       15.4299587732        9.1799289947
 Na         7.5630592695       16.5408862448       17.0991423607
 Na         6.8041466103       -1.6628536877        3.6810509227
 Na        12.3027502663        1.6559086214       -1.5169957815
 Na         5.9984184794        0.8726990351       -1.9324346594
 Na         2.4061180580        6.5645234925        5.6813402024
 Na        15.1426517400       12.8718704978       10.9703323847
 Na         6.0011903739       13.9369251636        3.0963545778
 Na        14.5503185550       18.4306795077        2.3886065630
 Na         3.7893676235        7.3501833538        0.8657860437
 Na        -0.8189528405       13.5838987080        4.1575987091
 Na         2.4896157070        1.1562997305       14.3826447857
 Na         3.6942457957        0.3858577909        8.0688782844
 Na        13.6373968403       12.2752663150       14.9077566192
 Na        15.0022105162       15.8731203907        6.3182335177
 Na        16.6767302489        2.3206983311        7.9663376483
 Na         9.3647547491       -1.5086029160        0.2527279169
 Na         5.1105706408        1.7485542425        5.4967059844
 Na         7.7205643256        1.4678553939        1.3875265723
 Na         3.7482178280        3.0808201030       16.8918070690
 Na        17.9571425496        3.6384104615       10.6991650250
 Na        12.8438895048       13.6042769969        2.4991080200
 Na        11.5163109825       16.7036093072       -2.3606261444
 Na         6.9431206734        9.0772737290       15.2274804747
 Na         1.8283911087        0.0896146852       11.0406462948
 Na        17.5017740373       10.5585817876        3.3542739439
 Na        17.4092385518       14.7205993503       14.8269718554
 Na         1.3892340497        4.9898412396       15.4759044499
 Si        -0.5434805738       12.6499370565       12.1821455581
 Si         3.3584862138       17.9449406770       -1.2042028658
 Si         5.6034013685       12.9927322332       -0.0624304604
 Si        14.8760979274        6.3060624117       -1.1826232912
 Si         0.7679350103        8.3916713213        3.3974160626
 Si        11.6140575097       16.7803110943        3.1654241538
 Si         5.5993311512       18.3366572253       11.0157590359
 Si         1.4936732513       11.2963066190       -0.7772239982
 Si         1.0072613448       16.6675368296        4.5789784490
 Si         3.4878729698       13.3092669508       17.1982855045
 Si        15.3536551023       16.0362323537       11.8217546856
 Si        18.0994031622       11.6555376911        9.2048991866
 Si        18.2035984554        0.8145373734        0.5623868428
 Si         8.8219033667       11.4340124200       16.4951096830
 Si         6.5596403162       -0.5350620829        7.8339375399
 Si        15.7463497548       15.9341479046        0.2030027389
 Si         0.4363230550        1.4239755798        8.5408503262
 Si         0.3926263493       -0.0528037551       -1.8619904534
 Si        17.9537579751        6.9258081077       15.1885430398
 Si         9.4004648760       -0.3496577438        3.2813438667
 Si        15.3719888874       13.4944172637        4.0159093225
 Si         5.5951061862        7.5006483915       -1.6245700151
 Si         4.5424658965        1.0800600352        0.5797056180
 Si        10.7529192880        2.2861176366       12.8509340022
 Si         5.1476537991        2.0011760378       11.5469946197
 Si         3.1905407117       16.1874163999       11.3030391975
 Si        16.7101571797       16.0585624195        3.1271024040
 Si         1.2166790119        5.4721361918       -0.4818331464
 Si        11.1456659404       13.7987075752       -0.4612799002
 Si         1.8136187193       15.8235033910        0.2480189873
 Si        13.3286343182       11.7332989497       -1.0070193618
 Si         1.1936194960        8.4445477217       -1.1070612038
 Si        17.7195287319        5.4158867268       -1.4878849040
 Si         8.2284002281       14.5808585895        0.5880842394
 Si         1.0331526948       15.0566008586       16.6170851950
 Si        17.7306945057       16.8186975673       17.1259572136
 Si         3.3953944160        0.2083904205        3.2594157344
 Si         6.9997609770       18.3019601124       13.7870151623
 Si        17.6359075765        0.2248717817       10.4891350277
 Si        14.0471983651       -0.9475770052       16.1266376744
 Si         3.2333545878       13.6123188521        2.1172677620
 Si        12.6580860844        4.5793554694       -0.6653436228
 Si         7.6765314672        1.8270561392       13.5300990460
 Si         3.8763582484       15.9763576754        3.7580876005
 Si         9.1634194571        0.7460572569       17.4726222005
 Si         8.2739716131        6.1692607318       -2.1225823349
 Si        12.0776553212       17.2760068091        6.2647540487
 Si        16.1363420799       17.5678606630       14.4955709781
 Si        16.9191836181       -0.9262121179        5.3126804931
 Si         1.6429207067        2.6721785792        4.2499211424
 Si         9.8125735240       16.6116840685       14.2376272728
 Si         4.4235123445       -0.8968118478       15.5139475757
 Si         7.4279013309        3.2954684865       16.2820239766
 Si        14.2462012097        4.2381261235       16.2432013396
 Si         8.9450269099       -1.5508155723        6.3823876985
 Si        18.5109230009       15.7062963899       11.9156000059
 Si        15.2849517466        0.5309092407       -0.6800212992
 Si        -0.0102587166       12.0664398417       16.0606512859
 Si         0.7261271651       18.2086710750        2.2183200204
 Si        15.4994370627        8.8885650998       14.6695308807
 Si        11.6054159147        4.2238223433       15.0879606766
 Si        18.1488160608        2.0129693265        4.6323810744
 Si        18.2275414136        4.2596106242       13.8124119253
 Si        15.6501968052       17.6519883915        9.2780849543
 Si         1.0874718626        5.2911651917       11.9638978537
 Si         1.5915235098       10.8727297530       13.6708515637
 Si         0.2423644224        3.7366736791        6.5503629901
 Si        18.7944356275        1.7042025067       15.3088967050
 Si         1.3062312171        7.8239993729       13.5995303056
 Si         4.1369970226       10.9632422576       15.0877155661
 Si        16.4789785893        2.5991564784       16.8756324165
 Si         0.0776540206       -1.2823373051        6.9875077455
 Si        17.5496934397        3.4602141492        2.1070821347
 Si        14.4344316793       -0.0865419619        6.9274408271
 Si         1.9508415089       17.0821062113       14.1421463309
 Si         4.3290859259       -1.6665915189        5.9928353905
 Si        10.3899719991       14.0061976586       15.9825063147
 Si         6.1334723154       10.4632791038       -1.4991966054
 Si        -0.5325953418       18.6807245823       13.2004642607
 Si         0.8855566984        5.0968100674        2.4631258599
 Si        12.6768633482       16.4298747237        0.4201419180
 Si         3.0086444245        8.2295222099       16.0043220858
 Si        16.8069530836       11.7799168965       14.3809886533
 Si        15.6520645631       12.7497423750        0.7351035273
 Si        11.2410213413        0.0259010672       15.1223613754
 Si         3.4585320777        3.7982576876       13.2032450561
 Si        11.1687207384        6.6841865192       16.7774215686
 Si        13.5011680525        8.7513126309       17.1674702346
 Si         1.2147290676       11.2006218837        2.3360831527
 Si         0.9335559354       16.1584168881        9.3678474502
 Se         8.1794906373        4.7521103699        9.8388016796
 Se         4.9718770589        7.5678282687        3.4195655296
 Se         5.2799558109        4.3859273658        6.6304244004
 Se        10.9921004359        6.8465566049       11.8078509942
 Se         7.8797335235        4.3402121774        2.6374789809
 Se        11.0058468365        1.3841074653        7.8218416120
 Se         3.8615194167       11.0015208155       10.6136401474
 Se         8.8667040785        7.8086560865        4.8653353329
 Se         2.4782592022        7.4470444880        8.7202945034
 Se         8.2665994112       10.7495001248       11.5920510495
 Se        12.3994991885        5.6619572989        3.1314278009
 Se        11.2755482674        5.3982608141        7.5295596800
 Se        13.9069812308        8.0897032678        9.7252663611
 Se         6.5301152963        7.3540665825       12.8550333306
 Se        13.4222328264        1.7798943710        3.6886898030
 Se        14.7798648409        3.7291035676        9.9536365231
 Se         6.8351712674       11.3821089703        4.4725408817
 Se         2.8694807984       11.9847101715        6.5214698075
 Se         6.8116967218       12.9868387143        8.4079081451
 Se         9.9074182184        8.9921830705        1.5598625275
 Se         6.1686231112        8.5616363342        7.8313194100
 Se        10.1943397936        9.9887593552        8.4869795421
 Se         6.5266055319       14.3327405616       12.7153764879
 Se        15.1667362554        8.6466060657        2.1555033710
 Se        12.6627677011        9.3565468512        5.0900545244
 Se        17.6238308421        7.5679957855       10.6467139297
 Se        12.6635041705       11.1728522246       12.1771704014
 Se        15.6930375009        5.7905128614        6.0269681717
 Se         7.9377119988       15.8603934979        5.8770506063
 Se        10.5754000051       14.3580557444        9.9320310233
 Se        10.1062507411       12.7836250828        5.7348793384
 Se        14.1894801153       12.9523333410        8.1648500968
 Se        16.8164872306        9.2491695635        6.3567760424
 Cd         6.2545783822        8.8431920833        5.3091284244
 Cd         6.1999376917        5.2920568969        4.4445535728
 Cd         6.5080326850        3.1415435608        8.5087428173
 Cd         6.1610567697        5.0663748683       11.4952379154
 Cd        11.4414308890        1.3821276405        5.2537389044
 Cd        10.2882707337        3.0186111165        9.7428014570
 Cd         0.4888411991        8.6865320938        9.7865859870
 Cd         9.7848483267       10.2387091650        5.5314245833
 Cd         3.7792633627        9.7893622489        8.1961059559
 Cd         5.0538860498        9.2615531017       12.0783485076
 Cd         8.9334163192        6.4391068248        1.4616905200
 Cd        14.5090113129        3.8251026458        4.8294323216
 Cd        11.2003407431        7.5195218571        8.9548341506
 Cd         6.9632583200       12.0502124826       13.8257826293
 Cd        15.1492418994        6.0549876675        2.3750544776
 Cd        13.1773007294        2.5340362970        8.5003742703
 Cd         5.4256583224       12.3549579487        6.3389687273
 Cd         5.2378648683       13.1404568586       10.8075753393
 Cd         8.9085520235       14.5732724811       11.8296669983
 Cd        10.2587182573        9.9530229799       -0.7503521828
 Cd        11.4477925220        6.8525667924        5.3611102948
 Cd         8.8767401379        8.2479357757       11.8023600490
 Cd        10.6263139351       11.6270324731       10.4736916534
 Cd        12.2801380838        8.3332873709        2.5040931049
 Cd        14.9845258279        8.2408132663        4.8054435324
 Cd        12.9758610448        8.6399006996       12.3245117342
 Cd        16.3963289422        9.0641628245        8.8461735424
 Cd        14.1421769725        5.8880214523        8.3999329971
 Cd         9.2864591264       14.6164794306        3.8726456247
 Cd         9.0098897149       14.1432699249        7.6821880896
 Cd        12.5894111908       13.4570813490        6.1186546197
 Cd         7.4965833146       10.5588452536        8.9254278029
 Cd        16.1583846436       12.0593108927        6.6508174017
