426
 i =     5500, time =    11000.000, E =     -8405.8402069620
  O         8.4036721542       -0.5946034365       17.9162612840
  O        14.4674669707        0.7125712715        0.8115117113
  O         4.7553736918       13.2971021435        1.5402060011
  O         2.9155975527       16.1924106784       13.3726360158
  O        11.2367733333        3.3707859124       16.4312009196
  O        18.3033031770       15.2569570494        2.5930460344
  O        17.7290435941       11.6773884359       12.9441786537
  O        11.3205021713        0.9674036657       13.9872664289
  O        11.0213299887       13.3819246745       14.9823291431
  O        -0.3144314943       -0.2856191585        1.8767372848
  O         2.6545981584        4.3531627256       12.2060134213
  O         9.1027890608       13.1693086861       16.8585642863
  O         4.8893583002       16.2468784116        5.4435557350
  O        13.5866488166       16.9048233629       16.3447926395
  O        18.5871015062        1.1242015605        9.8976589041
  O        16.9341616685       17.3638479985        4.2620350989
  O         5.6832986670       17.9135439453       14.8529106128
  O         4.5217062522        0.5651800836        2.4682277895
  O         2.1338245151        9.5765968904       -0.6952934412
  O         8.2079028724       14.5754923060        2.5521768857
  O         0.2776346286       17.3587754828        3.7275024304
  O         1.2001433489        6.6464993949        2.9351742978
  O         8.2737535886        2.1431031653       17.2658359673
  O         9.6022674226        1.2160265120        3.8727259387
  O        12.6050187775       15.7410994271        7.1905651525
  O         0.3347690313       15.2322522909        5.4500747650
  O         4.9763145590        0.2303282377       11.2729485420
  O        18.7982494802       17.9350187734       17.4781417586
  O        17.4823992232        3.9293877275       -1.5695988515
  O         6.5253340640        1.8739896001       12.6331362979
  O         3.3269245254        9.6159127056       15.6852373289
  O         7.2113332443       13.2541717279        0.4817078865
  O         1.7078212473        4.7226038710        1.1767599661
  O         4.5529833153        7.5384661351       16.7705448204
  O        15.7531258495       16.2204399829        8.4836376752
  O         1.5225316541       16.1326760536       15.6515301545
  O         4.5411521755        0.6531037634       16.2513009015
  O        15.6706406198       18.6586263882        6.1521723577
  O        14.9288700364        5.7444444167       16.7557745642
  O         1.8805827953        4.1654154323        3.6849825391
  O        14.4385727360        7.9575454217       -1.1412407639
  O        -0.5314348453       13.9981925012       12.8557163173
  O         1.7868290568        4.5659367720       -1.4659005301
  O         0.3187036352       11.8203005639        3.3094464557
  O         4.0692874367       -0.5646800094        0.2600322432
  O         0.5351834814        4.6974983842       10.7051672296
  O        10.2084859464        0.6247123997       16.2821339113
  O         4.4918906892       17.0821014553       11.4409160275
  O        16.5233908915       12.2807754354        4.4610443214
  O        13.0903717416       16.9715420884        2.1919331709
  O        17.3583829447       -1.3499646560        9.7955787134
  O        16.4075642294        4.0334083393        1.7174061510
  O         3.2743711383       16.4082355901       -0.2268182255
  O        -0.3088757707        5.4661214412       -0.1904324320
  O         4.2799527190       12.3728146092       15.9537579103
  O        14.0602801343       14.9845892719       11.6781029941
  O        18.2828552315        2.1539740093        1.1362170044
  O         6.8047043539        0.8971198368        8.3412894753
  O         2.3717495103       14.4964273065        1.4788178577
  O        18.9027966861        4.3530896463        2.5924487918
  O        12.1908954166        8.0195890387       16.6770410182
  O         8.5625935704       -0.8249092197        2.4399833281
  O         6.1834618514       18.0202738464        9.5435488878
  O        10.3968809197       10.8004167609       17.0264107820
  O         3.5918027298       -1.6198517800        7.3518097860
  O         0.3789728147       11.2806998749       -1.8704080057
  O        12.8073992362       17.2121318672        4.9248389296
  O         3.0499048072        3.4104160483       14.8525113427
  O         3.5530744714        2.1220044173        0.1771460802
  O        14.1929638431       13.7650551173        4.7635011105
  O        18.3488694818        2.7509536800        5.9483816878
  O        12.4737562300       14.8870795737        0.5391523362
  O        18.9202840285       -0.6282145295       11.7501545807
  O         5.5663045190       11.2955994842       -0.1754510803
  O         8.7124359624       -0.9803367041        5.1005758556
  O        16.4675068645        0.6772773775       11.3554207581
  O        14.8481868548       -0.3236214269       -1.7326339058
  O         6.0040601099       -1.0276503191        6.7651606280
  O        10.2409445567        1.0845199584       -0.4732346308
  O         4.2245171145       -0.5964183620        4.8555696575
  O        17.6262880924        5.5747280449       14.3998636617
  O        10.6392965355       17.5671583214        6.6102254061
  O         5.0375491260       13.6831492976       -1.1796968957
  O         2.5544626493       16.2930328856        4.2151180988
  O        13.6128781899        3.7173482907       -1.7754822452
  O         5.2357491329        6.7021098842       -0.0806882720
  O         6.1635409325        1.2777545515        0.5925215095
  O         1.6856578126        9.2663761545       13.1945686767
  O         8.3139315243       -1.4564055592        7.8353214391
  O         3.4970684773       14.5458606223       11.2508559513
  O         1.1919817754       16.9331137758        1.1943704684
  O         1.8145361165        7.7018210441       16.9762134253
  O         9.9139624614       13.8858606746        0.6301003632
  O        16.9175663330       10.9315368938        9.8782865582
  O        17.6612388107        1.5094185873       16.5805027078
  O         9.7121980006       15.6679637579       15.8338099615
  O        14.5476025872        1.3824681047        7.1603207302
  O        10.7152304272       17.8959194463       14.6787936445
  O         8.1377042326       17.2581689761       14.6674744933
  O         6.9791361566        6.9789003061       -2.4009417794
  O         3.9216856610       14.0739346469        3.7907945232
  O        10.0391238402       15.8067861927       13.0715868038
  O         1.9552337296       -0.9297234199       -1.5106624374
  O         3.8386307873        1.9615452109       12.8547266339
  O        15.7529677811        3.2974251073       15.9779185368
  O         3.1651967743       18.1829551784       14.8937332231
  O        17.8543136199        0.3024062095        5.0470366725
  O        17.2770176825       -1.0619294610       13.9049034022
  O         8.5742439131       11.0794107846       15.1841095794
  O        14.1642485223        5.5365210651       -0.1009058720
  O         5.0260539347        2.8965394293       10.5685190136
  O         0.4586933374       17.2729056322        8.6832422200
  O        13.0828739589       18.3793723235        7.1089555375
  O        11.7968423923        5.6192249337       -1.3514305693
  O        14.8021146487       -0.6205199856        8.9171496977
  O        16.7386684979       16.6085622026       15.8856289592
  O         7.9730921604       15.7902206093        0.1563163767
  O         0.5299319952       13.5078698813       15.9986804945
  O         5.4841841243       10.2825955896       16.6770211512
  O         1.9940990500       16.7124023413       10.7431437260
  O         5.0177411677       16.3676026388        2.7866242665
  O         1.6403992325        3.2191136623        6.0727688206
  O         1.9262821801        1.3360457323        9.5665262580
  O         8.3319382361        4.8297457650       16.3120942591
  O        14.9441418587        7.9135418531       13.4524907675
  O         1.4203779282        8.2945476172        4.9215693944
  O         6.0231332782        3.6344781560       17.0020314310
  O        11.1977312496       14.4677746086       17.6004885023
  O        16.2133656271       15.0186138614        4.1520825001
  O        17.9297504504       11.7644635110       15.7055743345
  O         0.1605869775       10.7420723233        8.8695511430
  O        11.3184107457        5.6814027628       15.4719492289
  O         0.8776793701       18.1058790972       14.0599527909
  O        18.8756623477       12.5413051803       10.5791711735
  O         1.8629997279        6.9449071421        0.0328776869
  O        18.3803643702        6.2486782482       16.6424694629
  O         0.0649134620        2.9522239079        8.2504758897
  O         2.6247474713        7.2270883499       14.7818234093
  O        -0.5396671418        0.9329058160       14.0266979613
  O         0.8781689639       11.6784806506       12.5673305533
  O        14.4545639909       11.8117744952        0.3689269725
  O        11.0350130585       18.2490733182        3.3574379008
  O         1.6567161914        6.7915227234       12.3937372177
  O         0.1375135571        0.6769647655       -0.5355468119
  O        18.7402819483       15.3919889277       16.7281214233
  O         0.2760157943        0.2896799794        7.5813080300
  O         7.5802192556        0.3468840004       14.3716925730
  O         9.1620723352        2.0444472539       12.9638008919
  O        18.6295645127       16.5671980436       13.0972539114
  O        16.6190201595        6.3006546127       -0.7869586539
  O        15.0782148366       -0.7228104308       15.0845977431
  O        13.9549508067       12.8338489144       17.3715057012
  O        15.7348893767        1.9505829282       -1.1594999386
  O         0.0619168321        7.5388726996       14.5278611119
  O        17.3382611763        3.4841323881       13.0422631068
  O         1.2142896024       17.6816134256        6.1168269022
  O         2.8342968721       11.9738207961        2.5303092605
  O        13.2332351626       10.1862102978       -1.2757416004
  O        16.7447834794       15.2083192186       11.6876491707
  O         4.4428846049       17.5656967061       17.1814955410
  O        14.4314754201       16.4993556298        0.0661213710
  O        11.9345258741       12.3652029043       -0.2620540070
  O         7.6528073071        2.8717699740       14.8326209895
  O         6.7339043441       17.8576809882       12.3420139092
  O        17.1652040500       11.9019463869        0.9711867959
  O         2.7763472698       14.4289850762       16.7928299251
  O        16.2474543998       16.5119178505        1.8402860776
  O         2.2181673903       -0.5720660446        2.9296434356
  O         0.4678211808        4.6608059600       13.4266283724
  O        15.1460218220       17.2371220397       10.9124322172
  O        16.8832944835        8.0158134936       15.3557470189
  O         7.8204571237       11.1014502627       17.9086860000
  O        16.0728988462       10.2343589134       14.1542000379
  O        16.8816079584       16.2233940102       -0.9593679312
  O         1.0095269751       11.5875059797        0.7568448884
  O        19.1155944153       15.3994547051       10.5882679704
  O        19.4167011745        5.3082752477        6.7506297259
  O        16.9151819863        0.0252008176        0.2602032787
  O        18.0660616516       -1.6497646261        6.7599225482
  O        18.0364419562       12.7378390335        7.9780497930
  O         1.0305552816       15.0934136705       -0.8382318116
  O         2.8535441652       12.1028761757       -1.2096892219
  O         5.7130734169       10.5824951644       14.2513033559
  O        11.3910449954       15.4935564058        3.5324179606
  O         6.3074851126        8.8879604836       -0.8367859760
  O         3.1344138705       11.3640276802       13.8776845282
  O        17.3147925638        2.3017416147        3.5881504862
  O        12.5944300765       -0.1062508335       16.0281530304
  O        -0.7537070150        8.2650302425        3.2169901107
  O        15.9600062425       12.9788531746       14.4603112069
  O        15.0963589161       13.0510542059        2.4837008084
  O        13.4207483334        4.2685622860       15.0551034769
  O        11.3287368011        1.9960508782       11.4949913075
  O        18.8496656579        3.2415634077       15.2102574979
  O         9.7682389735        7.0013609335       17.0101227222
  O        11.1491075395        3.6447685463       13.7466017309
  O        15.3817918290       16.4885405690       13.5703880736
  O        11.8735666633       17.3657050270       -0.2032525845
  O        -0.3119802477        8.4736392510       -0.7519394320
  O         0.4997601483        1.8351625768        4.0641057913
  O         5.0207090851        4.3739340395       13.4366324646
  O        14.4372143085        9.1312605113       15.7898909362
  O        15.9694628243       14.1818627723        0.3471789438
  O         0.6838082219        0.8123624964       16.3073066229
  O         1.6265821519       14.8525114693        8.6252709580
  O        12.0503187301        3.6733974727        0.3780904540
  O         0.9344830683       11.0002758548       15.0462212388
  O         8.5828660397        5.4752507193       -0.5672925429
  O         3.0984150166        1.7238561078        4.3314446540
  O         1.6245374521        9.4974166924        2.4641057729
 Na        10.7883434640       11.1971969389       14.5300810883
 Na        18.5648848853       13.8374827189        0.8799975912
 Na        14.5414812432        2.8382645448        1.6649240323
 Na        17.6423951072       10.2828198286       -0.7462205760
 Na        18.5112783479        6.7990355072        5.3221878459
 Na        12.1266010246        0.0877195403        0.8521425405
 Na         5.9293180529        4.3768140212        0.1835881309
 Na        12.0342603667       14.3530687512       13.0477890067
 Na        -0.2910056621        5.9032298444        8.9179803941
 Na         0.6842580861       13.5321227939        6.8770938780
 Na        13.1952864287       10.2149705290        7.9561500538
 Na         5.4265651611        5.4461447739       15.4515940395
 Na        10.9724627970        2.9689043074        2.4903063538
 Na        14.3322499688       -0.0275191058       11.1835929086
 Na        16.4485779858        1.3652550191       13.3895531035
 Na         0.8220793278        9.7670410944        6.8185595669
 Na        10.0174187240        3.5532272155       -1.0883590485
 Na         2.9600242928       13.6777873993       14.0082211140
 Na         8.2930894236        6.3137763759        7.3527110738
 Na        17.7459950278       14.9391530111        8.4811694981
 Na        -2.7599096633        9.7408003569       11.7550074600
 Na         9.2453958760        5.0024725593       14.1265525912
 Na         3.7174387926       15.7811761745        8.3461838860
 Na        15.6786078364        5.4943933923       12.8860545912
 Na         5.7792687960       16.7743440703        0.6563759637
 Na         3.6433533896        9.7213531128        4.4667838074
 Na         2.5560839769        3.5645326395        9.7990175702
 Na         1.4211134603        2.5111809258        0.3912440346
 Na        18.1757542215        7.4221356921        1.1627820857
 Na         1.9166275683       12.9433080115       10.1312427267
 Na         6.7508586679        7.9995767504        1.8199850260
 Na        14.7547925768       15.0332719651       17.0464740836
 Na        13.4209071701       15.4602836342        9.3149615958
 Na         7.8462708532       16.5360149865       17.1023320044
 Na         7.2010731634       -2.4375038692        3.4450658482
 Na        12.0682762659        1.6234252852       -1.9971992212
 Na         6.1996586794        0.8410688133       -1.4859661970
 Na         2.3465525114        6.5854418584        5.9889797076
 Na        15.1270840490       12.8275220639       11.4124336195
 Na         6.3434998659       13.7947829972        3.3364011946
 Na        15.2086372767       18.6121460661        2.4671971342
 Na         3.5543134142        7.3969174845        1.4504144744
 Na        -0.5731666022       13.5932964090        4.1391343870
 Na         2.6125158413        1.1779313706       14.8197864677
 Na         3.1678660755        0.5456150339        7.6095619156
 Na        13.7434033090       12.2032567528       15.0269499698
 Na        14.9547345386       15.6760745518        6.1249564843
 Na        16.5445354802        2.6171098825        7.5130215385
 Na         9.4806719843       -1.8070318338        0.6818722906
 Na         7.2965693099        1.1415162723        5.3356377830
 Na         8.2177569373        1.1514124569        1.2389588260
 Na         3.6466744043        2.7802032138       17.1761000338
 Na        18.2076828580        3.0443335014       11.0968164289
 Na        12.5959109116       13.5724523876        2.7295050145
 Na        11.5109030029       16.8981931305       -2.4826677186
 Na         7.1066825490        9.1045505507       15.5908478720
 Na         2.0386761002       -0.3969575759       11.0103479730
 Na        17.5737440692       10.8028499008        2.9299343054
 Na        17.5887626192       14.5229020507       14.7523983467
 Na         1.3061054508        4.6948636287       15.7433472479
 Si        -0.4804087804       12.4525181517       12.1797195839
 Si         3.4328254460       17.8641479202       -0.9290089098
 Si         5.6374274541       12.9443940869        0.1832988201
 Si        15.0218491682        6.4369755547       -1.0931968088
 Si         0.8281683605        8.3116283116        3.4591079815
 Si        12.0545172054       16.9003722198        3.5034054979
 Si         5.6659149827       18.1188310796       11.0775998149
 Si         1.6014969971       11.1776651660       -0.7668609813
 Si         1.0350657941       16.5106470018        4.8843573275
 Si         3.7223931736       13.1576861417       17.2690019282
 Si        15.2902911319       15.9696405841       12.0117600290
 Si        18.2283500394       11.6381032295        9.1970640247
 Si        18.3779599988        0.5915247530        0.6588980564
 Si         8.9869069304       11.5027786800       16.7397931125
 Si         6.8478454076       -0.6464772517        8.2001136457
 Si        15.9385039589       15.8781682603        0.4027935801
 Si         0.4621039274        1.4177995095        8.9159567488
 Si         0.5252642852       -0.2718645976       -1.7840974196
 Si        18.0663902721        6.9051380111       15.1971768114
 Si         9.4968785330       -0.4069121621        3.6799104932
 Si        15.5308144470       13.5019906637        4.0249277293
 Si         5.6912120714        7.4564297074       -1.4001230178
 Si         4.6080729161        1.0356405790        0.8450304366
 Si        10.8091442120        2.1092091521       13.0276587064
 Si         5.1112438615        1.8132593109       11.7976665864
 Si         3.2026143136       16.0455941292       11.6928049742
 Si        17.1166204062       15.9843313232        3.2313018484
 Si         1.3386224321        5.4105112370       -0.2812570446
 Si        11.3541492817       13.9061294230       -0.2288503414
 Si         1.9445528336       15.7406735116        0.4343233302
 Si        13.4627774540       11.8609379136       -0.9120566235
 Si         1.2378735129        8.2328908227       -0.9529165979
 Si        17.9488944739        5.4842891176       -1.3789249416
 Si         8.3135848079       14.4559051616        0.9375128455
 Si         1.1572525800       14.9348316149       16.8183361573
 Si        17.8364914071       16.6112211998       17.2148539627
 Si         3.4438489571        0.2447164117        3.6437933205
 Si         6.9765128082       18.2618137349       13.9288468269
 Si        17.7208730451       -0.0641753066       10.6937489151
 Si        14.0314807175       -0.9668098622       16.2870128729
 Si         3.3569627799       13.4728291705        2.3509269583
 Si        12.8290164735        4.5897336545       -0.6036791673
 Si         7.7422398755        1.7931726461       13.7055981937
 Si         4.0885450435       15.7800687859        3.9926321748
 Si         9.2601407322        0.7176452166       17.6898131220
 Si         8.2979648972        6.0900587946       -2.0236691822
 Si        12.2185051910       17.1480433767        6.4931956370
 Si        16.1163657658       17.4485498560       14.6365704135
 Si        17.1357040743       -1.0654619562        5.6016387076
 Si         1.8067084853        2.7296343940        4.5333343785
 Si         9.6311059557       16.6454002464       14.3942542692
 Si         4.4855677317       -0.8473620236       15.7892671415
 Si         7.4867113124        3.2932583158       16.4067635653
 Si        14.4364853653        4.2608224553       16.2826102143
 Si         9.0014998740       -1.9269234838        6.4884249560
 Si        18.3678449217       15.3999300707       12.0709425485
 Si        15.4220940981        0.5261603335       -0.4613173797
 Si         0.1067643403       11.9753804220       16.0532395576
 Si         0.8641204053       18.0636327091        2.3809434718
 Si        15.6237001988        8.7294984934       14.6827380295
 Si        11.7374529861        4.1548318372       15.1754116091
 Si        18.3346322636        1.7357317142        4.6634695632
 Si        18.3824242268        4.2006573351       13.9376169643
 Si        15.8738869613       17.4838035737        9.4048828344
 Si         1.2450749442        5.1683938447       12.0606146120
 Si         1.7292275785       10.8313507737       13.6983386559
 Si         0.1818363149        3.7156279343        6.7500612836
 Si        18.8902239477        1.5622338433       15.4614016995
 Si         1.4876755874        7.7157562326       13.7024032398
 Si         4.4725089196       10.8124062676       15.3183728884
 Si        16.6865677455        2.7028441658       17.1890920923
 Si         0.1868695383       -1.2932476798        7.2619330954
 Si        17.7057448216        3.2745220559        2.2171535836
 Si        14.5127282951       -0.1972096341        7.2769992600
 Si         2.0546040936       17.1046259610       14.4995188094
 Si         4.5029301012       -1.6772066129        6.0801576085
 Si        10.2853731801       14.0505548002       16.2324536133
 Si         6.3374758849       10.4313108135       -1.3359938157
 Si        -0.6249315321       18.3714921281       13.3330989145
 Si         1.0120822410        5.0962538986        2.6480748233
 Si        12.8650606855       16.4752627445        0.5906273161
 Si         3.1378506462        8.1018107563       16.1257947755
 Si        16.8804012009       11.7299249234       14.3351929577
 Si        15.7606862365       12.6756562509        1.0187546267
 Si        11.2075396173       -0.0426750025       15.2492583227
 Si         3.6037791712        3.5569242699       13.3767419896
 Si        11.3098141836        6.6274878895       16.8301874620
 Si        13.5663534612        8.8421981394       17.1730541222
 Si         1.3891029080       11.1278406063        2.3761855891
 Si         0.9974772772       16.0026984692        9.5717861472
 Se         8.2631128912        4.9062661999        9.9655050669
 Se         5.1527643477        7.3038613664        4.1150392894
 Se         5.7061900806        3.4187617153        6.4269748078
 Se        10.8251751061        7.0044481258       12.1159385221
 Se         8.0359712039        4.0395504913        2.3642769516
 Se        10.8911504753        1.0045431405        8.3043843468
 Se         4.0657124777       10.8737483039       10.7591723213
 Se         9.0642786776        7.1677593905        4.5877767569
 Se         2.4041649290        7.3942920866        8.6725791526
 Se         8.7255640310       10.9923432421       11.6850423827
 Se        12.5684128243        5.5009490024        3.2838187775
 Se        11.3016252053        5.2975419245        7.8081781052
 Se        14.0078663554        8.3118270159        9.6057861655
 Se         6.7086548870        7.2840146798       13.1020689252
 Se        13.1980614880        1.5871901980        3.8736912093
 Se        14.8007396142        3.7525486239       10.1411178842
 Se         7.0641329911       11.1208294175        4.3690985667
 Se         3.1085455669       11.5278900160        6.9419604168
 Se         6.9646818703       12.8168049517        8.5312627830
 Se        10.1205577622        8.6896442380        1.7207765112
 Se         6.2935001650        8.1574966815        8.2240712859
 Se        10.2584659721        9.7584563793        8.3619672961
 Se         6.6181077566       14.3903321621       12.8947801107
 Se        15.2637041292        8.4557581078        2.2956506770
 Se        12.7036221989        9.2456555622        5.2174441538
 Se        17.8222122493        7.4754970814       10.8338120468
 Se        12.9570189050       11.0807887710       12.3170452136
 Se        15.6088015183        5.6650737819        6.0673150778
 Se         8.1506279878       15.3676660345        6.1825257403
 Se        10.7512463879       14.1880268350        9.9462269613
 Se        10.5156924206       12.4394719483        5.5904848665
 Se        14.2872150802       12.6912583031        8.2223355434
 Se        17.2527285960        9.4406483498        6.5278789638
 Cd         6.6498727045        8.8293754756        5.6421927027
 Cd         6.5781697810        4.9676661885        4.4160052056
 Cd         6.6570252902        3.0111839418        8.7758528377
 Cd         6.2760371323        4.9591919559       11.7028048311
 Cd        11.3493409472        1.2762790547        5.6735290567
 Cd         9.9345410373        2.8890135143       10.0939605806
 Cd         0.5268276576        8.8661324835       10.0296347929
 Cd         9.5710178056        9.7220816510        5.4818852935
 Cd         3.8666546051        9.4250606247        8.4414694817
 Cd         5.0917345667        9.3191859807       12.4180865106
 Cd         9.2326285987        6.1341538733        1.7068745863
 Cd        14.3256355432        3.7350649699        4.9089571030
 Cd        11.0034475241        7.4888314992        9.4107339487
 Cd         7.3161062213       12.0469849749       13.6927213941
 Cd        15.1467774739        5.8444998888        2.5795012800
 Cd        13.0519905487        2.3373336187        8.7537789720
 Cd         5.5712123570       11.9488288820        6.6263319404
 Cd         5.3999181065       13.1976758809       10.8906056949
 Cd         8.9311422135       14.5296393141       11.6947988811
 Cd        10.4922492169        9.5532637051       -0.7053372133
 Cd        11.8644832254        6.7922560396        5.7204110147
 Cd         8.8329634410        8.5656328743       12.4977083487
 Cd        11.0399678224       11.4616770445       10.3943450538
 Cd        12.5905330464        8.2222518616        2.7378437807
 Cd        15.2685244231        8.4226344502        5.1031274653
 Cd        13.1001180196        8.4764405241       12.3810278694
 Cd        16.5282297636        8.6337917639        8.9455522728
 Cd        14.0273585214        5.7848699558        8.5951084633
 Cd         9.6344184389       14.4368072077        4.1129454668
 Cd         9.3016056099       13.5436761565        7.6529309078
 Cd        12.7619205104       13.6387850293        6.4514669723
 Cd         7.6613719833       10.2758099665        9.3442358266
 Cd        16.3344218591       11.9523072829        6.7045348876
