426
 i =     6000, time =    12000.000, E =     -8405.8856221284
  O         8.2072564933       -0.5838339907       17.9424220788
  O        14.2304359781        0.4261922606        0.4745223635
  O         4.7985020781       12.8947954830        1.3878823872
  O         2.6943874569       16.0544800320       13.0709659730
  O        11.3373428001        3.0653535859       16.3526294666
  O        18.2050519266       15.1098988130        2.5219222983
  O        18.0043231584       11.6752495591       13.0882596392
  O        11.3827853561        0.6227846998       13.8235035151
  O        11.5227642489       13.5584427767       14.9216174009
  O        -0.3715090921       -0.5774783482        1.9419731172
  O         2.7189299042        4.3053342959       12.3614215834
  O         9.4527750735       12.7538969483       16.5851377605
  O         4.6466764321       16.0595299335        5.3444072834
  O        13.5659158737       16.6396214564       16.4217854023
  O        18.4745694247        1.1190161792        9.7021295363
  O        16.8748461418       17.3499529326        4.1368997158
  O         5.9912664255       17.6120954748       14.6770472341
  O         4.5752274455        0.4230264319        2.2984558370
  O         2.4809201215        9.6596167806       -0.5998572978
  O         8.0346650559       14.6763227620        2.3742679317
  O         0.3295403300       17.0182191737        3.6345845886
  O         1.0852159142        6.5484619058        3.1053623752
  O         8.2742994499        2.1116296014       17.0662473399
  O         9.8577300514        1.0533062549        4.0025516387
  O        12.9259742672       15.5930793690        7.0632013116
  O         1.0274421798       14.9644439324        5.4294299970
  O         4.9652869076        0.1733786540       11.1416238632
  O        18.8460182450       17.9587054374       17.0877155961
  O        17.6159031687        3.7745771833       -1.7744063868
  O         6.6480581329        1.8252134645       12.3535479350
  O         3.4876673690        9.8262737548       15.8598167874
  O         7.1913977979       13.3562454628        0.3348280985
  O         1.7638821623        4.7569793683        1.2324491179
  O         4.5906176855        7.4696226231       16.6751434305
  O        16.0224479913       15.8893977225        8.6978010352
  O         1.4621264086       16.0385764247       15.3967371556
  O         4.9370676623        0.4062352517       15.7843279350
  O        15.6323356004       18.2444892012        6.2299321731
  O        14.7588522052        5.6648120172       16.5731387558
  O         1.7197666652        3.8873308481        3.6210502298
  O        14.6903227893        7.9459611270       -1.4052553189
  O        -0.2449624659       14.1112339888       12.6736493889
  O         2.1030921830        4.5188473065       -1.3910873138
  O        -0.0756543048       11.7633317457        3.0155234392
  O         4.4900177398       -0.5655366086       -0.2004027250
  O         0.5832498238        4.4683529572       10.9129575376
  O        10.1089786654        0.3023024621       16.2634378643
  O         4.6050319439       16.9590179906       11.2698210178
  O        16.6892803465       12.5034919700        4.6495428759
  O        13.1163668438       16.7507542419        2.1394969020
  O        17.3368300236       -1.3256589678        9.6235096155
  O        16.3202340603        3.7786412265        1.5507214033
  O         3.3565786154       16.5395587675       -0.2964826714
  O        -0.2680517724        5.4253823179       -0.3637258436
  O         4.1754056466       12.5154229858       15.7538886974
  O        14.3101526563       14.6506288952       11.6073617281
  O        18.3310867981        2.0778713638        1.0111867485
  O         6.9437633026        0.8883728885        7.8345702717
  O         2.6146735886       14.4478586090        1.1842701403
  O        18.7997130046        4.3718717934        2.3633051580
  O        12.3150755829        7.9085397924       16.5306046359
  O         8.4286471764       -0.7693551094        2.4416587503
  O         6.2527302578       18.0826995059        9.4022660232
  O        10.3776963444       10.1620296367       16.5982358237
  O         3.6335664512       -1.5810282113        7.1181687752
  O         0.5858068661       11.3018317563       -1.7877901071
  O        12.7245295670       16.8455940761        4.7175150251
  O         3.3355985904        3.5756404965       14.9532552672
  O         3.2985611160        1.7548683869        0.0680322706
  O        14.1547985751       13.5843819812        4.6985463790
  O        18.2749147999        2.6456573491        5.8398829512
  O        12.2665789591       14.7711589821        0.4455420398
  O        18.9451563320       -0.5514191854       11.6878523447
  O         5.8548734655       11.2607276506       -0.3313443081
  O         8.8629404271       -1.3571502297        4.9283708162
  O        16.4189262930        0.6891885803       11.2043347253
  O        14.9776433355       -0.6341874256       -1.8489861132
  O         6.0972508725       -1.2325688665        6.4735822280
  O        10.0857502131        1.2406968655       -0.5918640865
  O         4.2960893450       -0.7162987622        4.5890212284
  O        17.5319035105        5.4371538797       14.5783822578
  O        10.6404366600       17.0868925077        6.5198328104
  O         5.0203207591       13.6734947838       -1.3004364029
  O         2.6881345435       16.3879542379        3.8689363981
  O        13.7053129090        3.5609939562       -1.8892082659
  O         5.6226760464        6.2089363898       -0.4644730172
  O         5.9891872223        1.5830347477        0.3079240335
  O         1.5915549447        9.2822291155       13.1154906101
  O         8.4231387759       -1.3678016944        7.6469126584
  O         3.6646006833       14.3702414924       11.3737824818
  O         1.2913222580       16.8639555311        1.1412381022
  O         1.8481640715        8.0146565691       17.0164153363
  O         9.7441128371       13.7914744469        0.4871238386
  O        17.0222879944       10.7279345574       10.1341437843
  O        17.5736031376        1.3238278889       16.3610259433
  O         9.5164964528       15.2772588165       15.6817661388
  O        14.5698387832        1.1416409212        7.1975290754
  O        10.7446695130       17.6013364536       14.8701725628
  O         8.2796150882       16.9690376739       14.1901329990
  O         7.1554004658        7.0111522811       -2.6639161831
  O         4.0046200831       14.0539301564        3.5393694425
  O        10.3112386133       15.7086013288       13.0329287608
  O         2.0486153433       -1.0249750546       -1.5682252125
  O         4.1189876417        2.0938636191       12.7821463840
  O        15.6476794581        3.1081170816       15.8850939196
  O         3.3002719704       18.0441590284       14.7456291960
  O        17.5938652995        0.2654172661        5.0309321018
  O        17.1789703092       -1.0483777275       13.8374833669
  O         8.5250748266       10.9461801136       14.9982359957
  O        14.1977361658        5.5061713466       -0.3220037301
  O         5.0989054427        2.9365661956       10.3747938890
  O         0.6648894727       17.1875269189        8.5741331851
  O        13.0259031497       18.3679622767        6.7217377772
  O        11.9829010529        5.6597189554       -1.6898672452
  O        14.7927402819       -1.0927493068        8.8247256233
  O        16.7926297145       16.5896795307       15.7803933665
  O         7.9879291701       15.8024380134       -0.1554456237
  O         0.7814596879       13.3770750284       15.8915671908
  O         5.7433965730       10.5818404227       16.4634427137
  O         2.2091329389       16.5702224551       10.5798228748
  O         5.2254959979       16.2372313953        2.6626736438
  O         1.6253834443        2.7428471360        5.9013811229
  O         1.8383595457        1.0721895020        9.4724398561
  O         8.4137389914        4.7459376541       16.0046823292
  O        15.2649949746        8.0963374220       13.3898499159
  O         1.2410470870        8.4080654272        5.1161250462
  O         6.2044076968        3.7504146892       16.7804679759
  O        11.1124381713       14.4922853002       17.4686193363
  O        16.0020906099       15.1268324403        4.0121829756
  O        18.0535496964       11.8307181473       15.7633110391
  O         0.4516066772       10.5246147777        9.2057907762
  O        11.3965183285        5.5973932006       15.0985935536
  O         1.0346212966       18.1812913128       13.7622466617
  O        18.8896003407       12.5706554073       10.5606997047
  O         1.8696340248        6.9302284159       -0.0681612090
  O        18.7000668326        6.2230488101       16.6604456669
  O         0.2100094154        2.6416780181        8.0355907143
  O         2.7462507320        7.3425300670       14.7315005654
  O        -0.5158415600        0.6976481499       13.9510004889
  O         1.1959712326       11.7345443135       12.4132053469
  O        14.2084919554       12.0655421997        0.3193828995
  O        11.0794874227       18.2609745851        3.1160399540
  O         1.5585629566        6.6857445601       12.3788435496
  O         0.1271178248        0.4662068744       -0.4806085524
  O        18.8529293075       15.3488425252       16.6725989289
  O         0.3221643517        0.1256810023        7.5118154026
  O         7.7208304060        0.1520147219       14.0315962263
  O         9.2410665265        1.9366113942       12.7022377170
  O        18.6563299600       16.5854168837       13.0129963561
  O        16.6945493182        6.2936652341       -1.1174146713
  O        14.9072609411       -0.9920066516       15.0373290517
  O        13.7799773048       12.6821048573       17.1212396000
  O        15.8402172365        1.8351554457       -1.0669439287
  O        -0.0024991327        7.4120991349       14.4278701577
  O        17.5113489233        3.3736620498       12.8109616408
  O         1.3174259779       17.5442521997        5.9896374211
  O         2.5780672094       12.1284876020        2.6131007605
  O        13.1227244382       10.0954844336       -1.3591498013
  O        16.9006847670       15.0442365140       11.6347422519
  O         4.6202779352       17.4214327356       17.0059406474
  O        14.3629669721       16.3262333251       -0.2280577695
  O        11.7913934906       12.2653570602       -0.4695121952
  O         7.7151983207        2.8330956107       14.5498590198
  O         6.9212116804       17.9882347592       12.0979235754
  O        16.9030690451       11.7961165076        0.9024883902
  O         2.9145003940       14.4831724570       16.6725786948
  O        16.0816796670       16.5646923227        1.7175234372
  O         2.1168440727       -0.6308057222        2.8343216691
  O         0.3850177059        4.8395101357       13.5938387411
  O        15.4506189279       17.1392712313       11.1409648731
  O        16.8668219312        7.8856232103       15.5556352118
  O         8.2151513474       10.6277478669       17.7641687249
  O        16.4514838057       10.1674519152       14.3408524276
  O        17.0461434334       16.3477281849       -0.9224118782
  O         1.1373875544       11.4021209455        0.7207015258
  O        19.0943616980       15.6919674750       10.4115188532
  O        19.4702550764        4.9822783405        6.6128979305
  O        16.9244501753       -0.0807664673        0.2209600534
  O        18.1882167533       -1.9259372532        6.5263291085
  O        18.0812210512       12.2635536035        8.0675639857
  O         1.2750331485       15.1135876369       -0.9879404598
  O         2.9436933967       12.1997486366       -1.1418948552
  O         5.7104702128       10.5703533375       14.0856826828
  O        11.0765215929       15.5282179847        3.2454174105
  O         6.3573837408        8.8444975253       -0.8883173463
  O         3.4076587425       11.3243520328       13.7767060396
  O        17.2275904684        2.3913263643        3.4507360861
  O        12.6130722150       -0.2383008639       16.1478800529
  O        -0.8339339456        8.3840549286        3.3984851349
  O        15.9990463997       12.9136429547       14.4724224139
  O        15.1993519484       13.0997423522        2.4655808213
  O        13.3823982767        4.1668696180       14.9090662264
  O        11.6097412087        1.8233748554       11.5611938596
  O        18.9298782173        3.1047987466       15.1747239417
  O         9.8315667898        7.0686277698       16.6170008919
  O        11.0974162443        3.2873745440       13.7030834264
  O        15.5303207910       16.2466971213       13.6082976296
  O        11.8164063701       17.3597141280       -0.2038318872
  O        -0.0625571386        8.9040682903       -0.3751482862
  O         0.3218766036        1.5388185280        3.9322283420
  O         5.2000178308        4.6458693173       13.4049482478
  O        14.4547801371        9.2596248505       15.7738026694
  O        15.9383050688       14.1448261624        0.0407437113
  O         0.7424976453        0.8228704765       16.3087846204
  O         1.5556201530       14.6691069480        8.7067873858
  O        12.2180396447        3.4923886958        0.2148616579
  O         0.9153119085       10.8896915230       14.9980097710
  O         8.6789820962        5.4830274082       -0.8338061793
  O         2.9962918982        1.5701221427        4.0461451075
  O         1.5509510827        9.5643262561        2.6921953612
 Na        10.8761015812       10.9412016230       14.1266006597
 Na        18.7008050332       13.3104825209        1.2730462787
 Na        14.2866351951        2.6827273791        1.2842340729
 Na        17.8042646002       10.3910424961       -0.8174271944
 Na        18.5037892395        6.7845229179        5.3080427950
 Na        11.9044052745        0.1640056858        0.6562153479
 Na         6.5282919559        4.0729219037       -0.3989388064
 Na        12.5149125199       14.8525799525       13.0365267513
 Na         0.1124189900        5.4464968350        8.8038813167
 Na         0.5184741342       13.5251157314        7.1272409742
 Na        13.0797880691        9.9322314040        7.4565658357
 Na         5.1217461805        5.4697789647       15.4312956931
 Na        10.9380959204        2.7858630759        2.6038313686
 Na        14.3883520132       -0.0494611317       10.8196584813
 Na        16.2038800883        1.6139440228       13.2002429265
 Na         0.7025930997       10.1365728855        6.9191997808
 Na        10.0338103304        3.5487530705       -1.0852735593
 Na         3.2870530936       13.7869107758       13.7275354210
 Na         8.4831407071        6.1588285037        7.3560364287
 Na        17.1823923697       14.0778024680        9.0291811231
 Na        -2.4160569543        9.6033618234       12.0975863819
 Na         9.2202051662        4.9478233164       13.5119552124
 Na         3.0035163204       15.4343539861        7.1003069438
 Na        15.6871112759        5.6683797279       12.5117766900
 Na         5.8049974727       16.7904365945        0.5361251755
 Na         3.2454407213        9.4549682326        4.5129024926
 Na         2.7018483643        3.1799879870       10.1198028597
 Na         1.3266252200        2.4795942602        0.3029321571
 Na        18.2684170804        7.7960118359        1.2374989983
 Na         2.2501406580       12.6932725605        9.7509806026
 Na         6.6137849374        9.8138392294        1.7572238795
 Na        14.8664291914       14.6096377736       16.6751407974
 Na        13.6501842479       15.2189483869        9.3246320774
 Na         7.7500965256       16.3776858496       16.9738307591
 Na         7.2442411378       -2.3821481299        3.1857151311
 Na        12.3037343580        1.6330036964       -1.6852751292
 Na         6.2446071016        0.7397431655       -1.7575958888
 Na         2.6030000500        6.3657631545        5.8946549902
 Na        15.2297588228       12.5867090468       11.1831762390
 Na         6.1292149661       13.5208997403        3.2052989810
 Na        14.6979015820       18.3741882048        2.5733650692
 Na         3.9642904441        6.6202823973        1.1410767601
 Na        -0.4122805789       13.7207897058        4.1794840488
 Na         3.0017276788        1.1253591266       14.7154864072
 Na         3.0320267351        0.6029199359        7.4675602836
 Na        13.7044438437       12.0175136109       15.0176334570
 Na        15.1877818088       15.8767866806        6.1375581599
 Na        16.6726425727        1.8281577084        7.4732417412
 Na         9.2238027274       -1.4335401747        0.3967703835
 Na         7.1161514544        1.1332229676        5.4040672702
 Na         8.0008507527        1.2795093012        1.4159253126
 Na         3.9514450487        3.2504049710       17.4289408614
 Na        18.0829340689        3.3594637150       10.7046497157
 Na        12.8515971663       13.7620017269        2.6758679681
 Na        11.4835367166       16.7444218785       -2.3383205609
 Na         7.5637161173        8.8785055934       15.3645479809
 Na         1.7562227135       -0.6005877158       10.9118825225
 Na        17.3406135998       10.6990566238        3.3756727958
 Na        17.9249438628       14.6074550612       14.7396377901
 Na         1.4750955865        4.5396408179       15.7147296395
 Si        -0.2453518879       12.4992941062       12.1787532282
 Si         3.5677339595       17.9160765432       -1.1377928262
 Si         5.6843379329       12.8879999980        0.0079568402
 Si        15.0581682715        6.3815426679       -1.3552801987
 Si         0.6950938504        8.3326322381        3.6309642980
 Si        11.9215779396       16.8237737526        3.3093541771
 Si         5.7333669177       18.1098642192       11.0012865104
 Si         1.8059605791       11.1259743607       -0.6827980987
 Si         1.2630415969       16.3494889894        4.7902810172
 Si         3.7627531249       13.1626475931       17.1703314025
 Si        15.4326283978       15.6809674563       12.0352788835
 Si        18.4102123329       11.4179081300        9.3975245499
 Si        18.4394913406        0.4008374734        0.7206679398
 Si         9.1262481769       11.1514834173       16.4857059991
 Si         6.8390249363       -0.7411995249        7.9455518849
 Si        15.9331459349       15.8593876279        0.1924825321
 Si         0.4372148645        1.1685202544        8.7159498432
 Si         0.6290493093       -0.3006532822       -1.8440790242
 Si        18.1025303605        6.8426949671       15.1967193539
 Si         9.5218922654       -0.5024645025        3.6028429363
 Si        15.5662902763       13.5017268062        4.0373914068
 Si         5.8159328231        7.3848943287       -1.5571237697
 Si         4.5752194614        0.9331039489        0.6840681364
 Si        10.8818052531        1.8647372858       12.9754544890
 Si         5.1993540234        1.7888506631       11.5674775623
 Si         3.3825015385       15.8913791288       11.6178477455
 Si        17.0449098705       16.0365313182        3.0647077052
 Si         1.3648235865        5.3766121206       -0.2663571045
 Si        11.1683001301       13.8269871773       -0.3980040453
 Si         2.0619068087       15.7384173722        0.2319152476
 Si        13.2694538799       11.7868046985       -1.0960294226
 Si         1.3715274583        8.3854877299       -0.8514080337
 Si        18.0285160481        5.3907162120       -1.5469866452
 Si         8.3339612589       14.5627732817        0.7215728471
 Si         1.2070839580       14.8668368720       16.6520323094
 Si        17.9099086182       16.5983796704       17.0025206356
 Si         3.4546783049        0.0830755921        3.4050007439
 Si         7.2088728181       18.0675108632       13.7145767264
 Si        17.6707391701       -0.0095263774       10.6061286585
 Si        13.9777596157       -1.2330712027       16.3903425404
 Si         3.4371823415       13.4433969837        2.1173260632
 Si        12.9126377552        4.4637015280       -0.8392195559
 Si         7.8105727443        1.6675738693       13.4282124352
 Si         4.2011180573       15.7015624771        3.8219948146
 Si         9.1598627636        0.6773671847       17.5958046086
 Si         8.4990673196        6.0637072969       -2.3595136065
 Si        12.2904184241       16.8579758366        6.3053153572
 Si        16.0912168983       17.4327333983       14.5556467497
 Si        17.0697123645       -1.2488362170        5.5216065742
 Si         1.6610538236        2.3789888078        4.3061081214
 Si         9.7893087464       16.3359656881       14.3997341790
 Si         4.6927835395       -1.1490567378       15.5698719698
 Si         7.5363814237        3.2988195387       16.0978940484
 Si        14.4403120945        4.1213017720       16.1219577554
 Si         9.0459699223       -2.1117245980        6.3543938016
 Si        18.5240022536       15.4320657906       11.9005099926
 Si        15.4464812034        0.2274348429       -0.5793674766
 Si         0.2103436336       11.8651163056       16.1501699714
 Si         0.9070157591       17.8565955024        2.4056335092
 Si        15.6505860876        8.7291316262       14.7769954321
 Si        11.7143588972        3.9445784408       15.1039785161
 Si        18.1874611732        1.6631850505        4.5431038888
 Si        18.3091773589        4.0929830840       13.9604596356
 Si        15.9285705915       17.2282315938        9.4676300618
 Si         1.2428694526        5.0792075793       12.1909482358
 Si         1.8508575292       10.8088993340       13.6143389598
 Si         0.2731229556        3.4036903715        6.5301349229
 Si        18.9214278160        1.4254633438       15.3626695279
 Si         1.4556845381        7.6623777443       13.6758195154
 Si         4.5235145423       10.9512582042       15.1686049038
 Si        16.6725826859        2.5309165290       17.1031563007
 Si         0.2702944833       -1.4855760227        7.1464086354
 Si        17.6920031709        3.1864969721        2.0368379543
 Si        14.4517795428       -0.4220640601        7.2584961145
 Si         2.0791397098       17.0508072425       14.2014813264
 Si         4.5963943168       -1.6489061925        5.9254972423
 Si        10.4693294673       13.9431135690       16.0223459912
 Si         6.4840307630       10.3577424453       -1.5446366501
 Si        -0.5626269624       18.3590382334       13.2753312364
 Si         0.9444039226        4.9878007445        2.6408824912
 Si        12.8451498545       16.3696457238        0.5010605200
 Si         3.1888838016        8.2434521328       16.1128745441
 Si        17.0002615752       11.7185546621       14.4192203221
 Si        15.5749640677       12.6859522297        0.9071310932
 Si        11.2392924226       -0.2688033374       15.2070715568
 Si         3.8117344265        3.6959351026       13.4278576707
 Si        11.3577625184        6.5233632454       16.4640658035
 Si        13.5680064578        8.8143036926       17.0903342473
 Si         1.2319081235       11.2084582041        2.3493498895
 Si         1.0746441011       15.9206144364        9.5482266614
 Se         8.3596897781        4.5098630502        9.8587872470
 Se         5.2319663374        7.5987060690        3.4485873024
 Se         5.5459015294        3.9464599783        6.2307628263
 Se        11.2226719759        6.7689517611       11.8853172989
 Se         8.2113172964        4.1474015959        2.7248252041
 Se        11.1184771200        0.9389345956        8.2542644770
 Se         4.1572438823       10.7358824579       10.4595734480
 Se         9.2159975007        7.3448939715        4.9623761908
 Se         2.5546935358        7.2568796791        8.7266121419
 Se         8.6438937792       10.6231298171       11.3811755830
 Se        12.5031656939        5.2983254244        2.9251918205
 Se        11.7745069211        5.1500395727        7.4563947257
 Se        14.0256297425        8.0485718652        9.5509492506
 Se         6.7753142856        7.3243079531       12.9583715887
 Se        13.3320687388        1.6208222829        4.0206770800
 Se        14.9871018349        3.4828567725        9.7655397948
 Se         7.3524664310       11.1965890591        4.3703322627
 Se         3.2900224453       11.6086765817        6.6499880167
 Se         6.8274001274       12.6759235589        8.3622634305
 Se        10.2732291263        8.7399538929        1.7044286825
 Se         6.3156089426        8.3611841591        7.9839929423
 Se        10.3997806939        9.7270893958        8.3679728443
 Se         6.9509992408       14.2602742006       12.6802907527
 Se        15.3935839238        8.1796257133        2.1028315758
 Se        12.7893120355        8.9516872794        4.6774934178
 Se        17.9020762392        7.2843300524       10.4840199419
 Se        12.9339013348       11.1543621052       12.2590170023
 Se        15.7459668715        5.5820859846        5.9637402232
 Se         7.8904023632       15.2796813141        6.1363550548
 Se        10.8220772540       14.1178574069        9.6148383931
 Se        10.6353785494       12.4415353068        5.6955145176
 Se        14.4687457642       12.3846380890        8.2984232457
 Se        17.0613298165        9.1635262235        6.3071281358
 Cd         6.6737641273        8.7844754136        5.2663010263
 Cd         6.6527822508        5.3813446406        4.3709154421
 Cd         6.6107276345        3.0248563841        8.4186864119
 Cd         6.1201262504        4.9489599644       11.5160295894
 Cd        11.2404530965        1.5495469231        5.7029193149
 Cd        10.0533436963        2.5759206788       10.0512190355
 Cd         0.6519642372        8.4619514979        9.8935074610
 Cd        10.2318102168        9.7224628570        5.5341994098
 Cd         3.8513139844        9.5003702047        8.1539649032
 Cd         5.2225697512        9.3716205911       12.2563316934
 Cd         9.0247695409        6.1819895328        1.3538663661
 Cd        14.3500049608        3.8803255888        4.6798325059
 Cd        11.3055655238        7.2811988183        9.1382040645
 Cd         7.3985518692       11.8279524919       13.3460605421
 Cd        15.2591641456        5.7275849102        2.0148511015
 Cd        13.0830503518        2.4451246229        8.5170759885
 Cd         5.7251995877       11.6340098382        6.3581392756
 Cd         5.5580481452       12.9681865022       10.8662225895
 Cd         9.2125882847       14.5266682335       11.4981217589
 Cd        10.3643377388        9.4587914751       -0.7282032439
 Cd        11.6655480954        6.4379301946        5.1608624637
 Cd         9.0845145526        8.1735234551       12.1133899489
 Cd        11.3321529671       11.5480820857       10.1997082167
 Cd        12.6431694338        7.9738924687        2.1730659045
 Cd        15.3081324968        7.9908176881        4.7924992220
 Cd        13.4228798329        8.6491236256       12.1268756997
 Cd        16.5520952640        8.7095991646        8.9019756024
 Cd        14.5230927225        5.6588357459        8.4161992866
 Cd         9.4930064720       14.4872131262        4.1428540533
 Cd         9.2053219277       13.5499114972        7.7591736010
 Cd        12.8597582197       13.2265520466        6.5256123238
 Cd         7.7358389841       10.2941005190        8.9935482784
 Cd        16.2132904539       11.5830679777        6.6181841670
