426
 i =     7300, time =    14600.000, E =     -8405.8777725620
  O         8.1704582607       -0.4554280966       17.7029392945
  O        14.2421439622        0.6841840454        0.2923082086
  O         4.7264324873       13.2656613431        1.2910878883
  O         2.5928223463       16.3431458742       12.8470399409
  O        11.2203282661        3.1510295426       16.4478201159
  O        18.1520902513       15.1201964321        2.6257540035
  O        17.9543394272       11.5088053713       12.9677408454
  O        11.4471642411        0.8595946782       13.8556327487
  O        10.9442118992       13.4403716825       14.6812383053
  O        -0.4944088141       -0.3015527563        1.7468561586
  O         2.7735161914        4.4329155297       12.0029240496
  O         8.7092494901       13.1001333163       16.3241342045
  O         4.3437542228       16.1378162658        5.2974905419
  O        13.5475181250       16.6201653084       16.3563234625
  O        18.4016142919        0.9439263768        9.3072883198
  O        16.6761314182       17.2453621360        4.0735144582
  O         5.6166917789       17.7546161404       14.6025794992
  O         4.5165865862        0.3823633975        2.2646239993
  O         2.2120206654        9.6028934358       -0.8696752605
  O         8.1546885338       14.6823587776        2.1729047995
  O         0.1196903389       17.4228841570        3.6314266978
  O         1.1812132073        6.6163175340        2.6200027873
  O         8.4171677248        2.2100166157       16.9209374910
  O        10.4687156866        0.8125553939        3.3855640643
  O        12.7716636759       15.6535277060        6.9506630524
  O         0.2161071401       15.0965032332        5.1262175625
  O         4.7280316355        0.2101606875       11.0014926818
  O        18.7711639782       18.0419468181       16.9307300297
  O        17.4381092506        3.9072412299       -2.0058033405
  O         6.6156255180        1.8991574645       12.2142943115
  O         3.1824186592        9.6401438295       15.3962317579
  O         6.9927182092       13.5167200420        0.2319182983
  O         1.5134759483        4.5624325031        0.9243948427
  O         4.4114061641        7.4630118541       16.5193237735
  O        15.7312580730       15.9934710136        8.3961485584
  O         1.4071454829       16.0120477649       15.3447254150
  O         4.4937551148        0.4444806474       15.9808032828
  O        15.6906397065       18.2601726127        6.1836007509
  O        14.9253156996        5.8755398526       16.4230036022
  O         1.8031552765        4.0064886001        3.4857709812
  O        14.6349374528        8.0838373936       -1.4740823526
  O        -0.3199443449       14.0884956921       12.5507333887
  O         1.9394716615        4.6312292342       -1.6600942234
  O         0.1540954928       11.6934485887        3.0969475090
  O         4.3792907201       -0.5043788040       -0.1025557018
  O         0.7541280878        4.6790270979       10.4439489986
  O        10.3130052674        0.4068836736       16.2270506587
  O         4.5312032483       16.9207813707       11.0062519016
  O        16.4685457594       12.5176269758        4.6450980663
  O        12.9618222812       16.7929570027        2.0099640370
  O        17.0899023060       -1.3187566518        9.5355254093
  O        16.3229637054        4.0667976432        1.3934107352
  O         3.2228893328       16.5680388963       -0.3187007412
  O        -0.3848704461        5.4744280620       -0.4965446303
  O         4.0709144832       12.4641570062       15.5319071696
  O        14.0868556155       14.8301940497       11.7761223619
  O        18.1984552720        2.1807451110        0.9816547356
  O         5.9860517598        0.7656845222        7.7420045363
  O         2.1642642787       14.4703501754        1.2960292984
  O        18.7777014444        4.5623681881        2.4162155898
  O        12.3677795449        7.8277556079       16.5303950966
  O         8.2352857404       -0.5370691527        2.4260506198
  O         6.3011697657       18.0302827177        9.3614938793
  O        10.2038857103       10.8746643528       16.8682061672
  O         3.5325482546       -1.4698488972        7.2279155377
  O         0.3745870492       11.2845582361       -1.9528129593
  O        12.4123060998       16.9128072121        4.6136823027
  O         3.0165269321        3.5173770466       14.5382672743
  O         3.2097344648        1.8632193168        0.1606317907
  O        13.8366894136       13.3748538901        4.5059042752
  O        18.2254488113        2.7598431688        5.8724071044
  O        12.2183225086       14.9535364849        0.0372389938
  O        18.9288849125       -0.6162842160       11.4859808863
  O         5.5614011173       11.2420018971       -0.2532019508
  O         9.0675443639       -0.8707823098        4.9522284139
  O        16.5540852129        0.7788509138       11.2196406410
  O        14.9186546662       -0.5923852498       -1.9745597381
  O         5.9237229918       -1.5801139502        6.5290675650
  O        10.1284114902        1.1877142259       -0.5271436383
  O         4.1983320780       -0.5847831886        4.6683985943
  O        17.5488411515        5.6217739687       14.1701976226
  O        10.5948129857       17.2145646618        6.6505787304
  O         4.8516353402       13.6668795757       -1.4696821292
  O         2.3572109519       16.3715714971        3.7118228624
  O        13.6898738856        3.7866287697       -1.9639339336
  O         5.2579682925        6.3002629925       -0.6469356049
  O         5.8217220951        1.8369908441        0.2735525126
  O         1.5247721734        9.2962107096       12.9708709613
  O         8.1749761148       -1.0280741500        7.5733666398
  O         3.3309330654       14.4557546988       11.1738341810
  O         0.9778715176       17.0146333141        1.0018460660
  O         1.7055155176        7.8998521494       16.7645063310
  O         9.6817900013       13.9912344704        0.0232918568
  O        16.7847218413       10.6355920538        9.8423575669
  O        17.4048283555        1.4243207083       16.0418077808
  O         9.5651676927       15.5598209595       15.5295923082
  O        14.5857574593        1.1343749249        7.0906973043
  O        10.7300689560       17.7281826752       14.5414055885
  O         8.0730026492       17.1586379180       14.1455693161
  O         7.0399748855        7.0528453215       -2.5452311164
  O         3.6892951284       14.0444438987        3.5834979007
  O        10.0848504214       15.8392867919       12.8481756380
  O         1.9551036492       -0.7446188163       -1.7027851294
  O         3.8400677168        2.0873447409       12.4379345317
  O        15.5930798684        3.3139574750       15.6206049599
  O         3.0385201710       18.0700003660       14.8070245154
  O        17.4055713619        0.4520671762        4.7696207703
  O        17.2721251975       -0.8804206519       13.9432906777
  O         8.2875150510       10.8082616961       14.9761529059
  O        14.1297294287        5.6151913935       -0.3827251763
  O         5.0246967244        2.7682593223       10.2731920795
  O         0.2746423422       17.1330657084        8.3640142714
  O        12.9846304790       18.4117204080        6.6680517460
  O        11.6674586786        5.7205686027       -1.4263432936
  O        14.5870407286       -0.9981545642        8.7179540237
  O        16.6990791036       16.6408976423       15.7715323260
  O         7.8843741838       15.9893318952       -0.2054513015
  O         0.3487453346       13.5064101966       15.9114856266
  O         5.3650353578       10.5250891731       16.4238286012
  O         2.0898149709       16.7055319723       10.2546169408
  O         4.9249806406       16.4030441673        2.6881821054
  O         1.5719156113        2.8326820289        5.9459681649
  O         1.7944492946        1.1533480826        9.4535149089
  O         8.4236699490        4.8548914922       15.9398259227
  O        15.1493040737        7.9628788415       13.1716646617
  O         1.6026714976        8.4838762034        4.6893860536
  O         6.1477990903        3.5801729009       16.6264682924
  O        11.0643997810       14.2756394440       17.2119893791
  O        15.7725782219       14.9843820393        3.8607647245
  O        17.7893683332       11.6864067134       15.7399718067
  O         0.0990216810       10.4574868901        9.0206703308
  O        11.3323432995        5.5432961400       15.3324180216
  O         0.8011502119       18.1839459028       13.8588078442
  O        18.5003816858       12.5559101985       10.5364647076
  O         1.6582463934        6.9170866447       -0.2259589425
  O        18.5874230460        6.1547532418       16.3508442916
  O         0.1051010122        2.7907825975        8.1240474695
  O         2.5388658504        7.2535653873       14.5508112980
  O        -0.4316219747        0.9070746359       13.6362016487
  O         0.9325927080       11.8092921477       12.3666031946
  O        14.5572335849       11.8764537963       -0.0467968407
  O        10.6648337233       17.6769969712        2.8633218301
  O         1.3397444424        6.7677439254       12.1758322693
  O        -0.0545012636        0.5836717948       -0.6808043844
  O        18.7403560229       15.3894805340       16.7642819404
  O         0.6706477804        0.1270970050        7.3209860646
  O         7.4528160760        0.2073252351       14.1704820821
  O         9.2239244163        1.6727648093       12.6384036035
  O        18.4946319670       16.7027698697       12.8037624575
  O        16.6803102282        6.3650194687       -1.0729510589
  O        14.9209632113       -0.9224278480       14.8925328647
  O        13.7830969323       12.7819122965       16.8968805871
  O        15.7435059412        1.8726551534       -1.4664041429
  O        -0.1737463685        7.6650417390       14.2225421431
  O        17.3447533357        3.6632183721       12.5563043518
  O         1.4107341438       17.3782229605        5.8333032992
  O         2.7095609691       11.9492575597        2.3647322250
  O        13.0578961032       10.2464164907       -1.5855873098
  O        16.7830302765       14.9529836541       11.5444505746
  O         4.2335244790       17.3804175550       17.0017825673
  O        14.3701060554       16.4225490653       -0.0836321019
  O        11.9028302274       12.3626740506       -0.4112885037
  O         7.6685889503        2.8771221404       14.4587583525
  O         6.6603115665       18.0992093778       12.0603029842
  O        17.2009284896       11.9889327871        0.7934542921
  O         2.6839050649       14.3929597846       16.6349091960
  O        16.1823118044       16.4802663232        1.6189302146
  O         2.2039287149       -0.5912822511        2.7316751503
  O         0.4391736761        4.6828054577       13.1436989556
  O        15.1132174520       17.0556884078       10.8881156386
  O        16.8224369514        7.8744745020       15.3335324163
  O         7.6681243552       10.8594572575       17.6561304710
  O        16.3173393502       10.1037066113       14.1012198754
  O        17.0095726122       16.4612683848       -0.8603788527
  O         0.8659819978       11.6256642309        0.4641979653
  O        18.9517463977       15.6526034650       10.3213522195
  O        19.5571297252        4.9964930132        6.3609506380
  O        16.7645225189        0.0876562622        0.1305218687
  O        18.2571844226       -1.4860523294        6.2628601874
  O        17.8987895912       12.4012741580        8.0550652455
  O         1.0052265438       15.2791823441       -0.9916680517
  O         2.8143426418       12.0467959393       -1.3992994430
  O         5.5100079189       10.2809634388       13.9389161273
  O        11.2449447548       15.0232727410        3.0900121896
  O         5.9761851828        8.8398533326       -1.0249699665
  O         3.1105666263       11.2829011214       13.6857001471
  O        17.2043547157        2.5977909147        3.3439706826
  O        12.6079700530       -0.2415648688       15.9436747119
  O        -0.7176610758        8.4016271014        3.0637950849
  O        15.9154208167       12.7297491115       14.2185425005
  O        15.2003080019       12.9195641044        2.2425051342
  O        13.3403752430        4.0134784241       14.7884664313
  O        11.5722945306        2.2349642163       11.4224936127
  O        18.8420412435        3.1917358540       14.8364247980
  O         9.7134100447        6.9893475462       16.8139159518
  O        10.9930946980        3.4217476436       13.7089251671
  O        15.6075812729       16.2808280717       13.4932125546
  O        11.8447462754       17.5114298923       -0.3242618862
  O        -0.3573791755        8.6321070891       -0.9631839439
  O         0.2682472298        1.8266808958        3.8660307353
  O         5.1582500599        4.3512433432       13.2302496754
  O        14.3569184035        9.2047993209       15.5364297823
  O        15.9852911716       14.1927348750       -0.1112494320
  O         0.5932966448        0.9369142914       16.2084267025
  O         1.3111715158       14.6684889111        8.6235273995
  O        12.2213975177        3.5891639295        0.2083247657
  O         0.8395714254       11.1279989546       14.9280962806
  O         8.3037890242        5.4600640085       -0.8637167505
  O         3.0396198666        1.7098086780        4.1763013922
  O         1.5711288784        9.5131567308        2.2878839986
 Na        10.2932016368       11.3633359195       14.0645051695
 Na        18.7811816015       13.5102885797        0.9365338723
 Na        14.1900797577        2.8494362212        1.0023574438
 Na        17.5914440087       10.1921903667       -0.9775765994
 Na        18.2663442963        6.5546405533        4.9410779856
 Na        11.7709154718        0.2725988456        1.0777205296
 Na         6.3790450532        4.2408066155        0.0035211544
 Na        12.1647599706       14.9146374546       12.9894680163
 Na        -0.3250000439        5.5066423415        8.5459384313
 Na        -0.0093273745       13.6430428899        6.9512783135
 Na        12.8490737563        9.9467710369        7.4212501081
 Na         5.2739197797        5.1823673511       15.3603412914
 Na        11.1185521008        3.1101842178        2.7596272398
 Na        14.4072956908        0.8118435715       10.6086974048
 Na        16.3241476747        1.5414026989       13.2640471829
 Na         0.4749076977        9.9036830062        6.6798511119
 Na        10.0081720834        3.4709033075       -1.0576536162
 Na         2.6282256330       13.8144885738       13.4785837929
 Na         8.3598246341        6.2648523629        7.1813084625
 Na        17.2862783868       14.3944528203        9.0839518036
 Na        -2.3551695029        9.4983521098       11.7226767932
 Na         9.2129375587        4.8929603227       13.3266684298
 Na         2.8902299242       15.5063036615        7.0911033942
 Na        15.9850020919        5.5672557444       12.4473109081
 Na         5.5829466632       16.5893199072        0.5335879573
 Na         3.3395480468        9.9851065110        4.2755734858
 Na         2.6388220459        3.6543187399        9.6232016336
 Na         1.2070945045        2.4646774443       -0.0667108190
 Na        18.0357135206        7.3449733606        0.9809005918
 Na         1.6486347129       12.6570773959        9.5722343821
 Na         6.5515808605        9.6406510145        1.4472158056
 Na        14.1985697828       14.7985300139       17.2419622140
 Na        13.2925836026       15.2742653997        9.2641641081
 Na         7.6110836892       16.8670457136       17.2002581522
 Na         6.7670480910       -1.9017951000        3.5923693220
 Na        12.4660831236        1.4336437927       -1.9493615118
 Na         6.2152889853        0.9451936747       -2.0365278798
 Na         2.3185836699        6.5371714825        5.8882189732
 Na        14.6871665225       12.7763089614       11.8346038528
 Na         6.2483272870       13.7215510137        3.0767881647
 Na        15.1445621437       18.6615189859        2.2345018084
 Na         3.5916413133        6.6029084678        0.8762720738
 Na        -0.7393707668       13.4672483228        4.0675496312
 Na         3.0072667306        1.1601975622       14.5052758689
 Na         3.7583135808        0.7403906529        8.4400934938
 Na        13.6380732805       11.9421379624       14.8107446652
 Na        15.0607747745       15.8760861907        6.1444257988
 Na        16.2407446788        2.4782540583        7.0904186937
 Na         9.2894646654       -1.7654091857        0.3078404827
 Na         5.5123523426        1.7475681874        5.4875037810
 Na         7.9017223091        1.2888507965        1.0552229491
 Na         3.6647730246        3.1932877787       17.8303224083
 Na        18.1132122967        3.4200524098       10.4753916936
 Na        12.5456204311       13.1216481418        2.6357283725
 Na        11.2996693676       16.6314172123       -2.5694783922
 Na         7.0960669303        8.6627366058       15.0692690359
 Na         1.9659395003       -0.4212845048       11.0368722733
 Na        17.4219676698       10.5075980622        3.2219763603
 Na        17.0303438973       14.3996673173       15.0589486031
 Na         1.4439668897        4.8489654593       15.2906224242
 Si        -0.4887430715       12.5817215189       12.0765413696
 Si         3.4156126580       18.0054350188       -1.1011968976
 Si         5.5146469517       12.9200693594       -0.0672872095
 Si        15.1026763067        6.5136169609       -1.4412380125
 Si         0.8802170419        8.3329255337        3.2660627698
 Si        11.7686421566       16.5362627875        3.1743837233
 Si         5.5559092069       18.1545875874       10.8295542307
 Si         1.5802571310       11.1224097966       -0.9562158308
 Si         0.9288915697       16.3687226085        4.5626316544
 Si         3.6549658277       13.0693197186       16.9779323955
 Si        15.3563739402       15.7787935755       11.9194785763
 Si        18.1979440709       11.3525563496        9.2465707240
 Si        18.2363616630        0.6144120424        0.5669612053
 Si         8.6842365374       11.4355881193       16.4236084464
 Si         6.6100180596       -0.7387691801        7.8013748055
 Si        15.8759399341       15.8584554311        0.1475909098
 Si         0.4763343137        1.2247241680        8.6239790859
 Si         0.4299394540       -0.2221452491       -2.0208849396
 Si        18.0366235971        6.8714532270       15.0044980607
 Si         9.5815012679       -0.5612259797        3.3678915685
 Si        15.3261353042       13.3752971907        3.8705244832
 Si         5.6213483743        7.3705396812       -1.7003443779
 Si         4.4768793424        1.0357428179        0.6254016148
 Si        10.8352347822        2.0291738424       12.8124797425
 Si         5.1250608063        1.7420672033       11.4403801591
 Si         3.2030993419       16.0354710769       11.2742704688
 Si        16.9023152253       15.9394972432        3.0438375005
 Si         1.2522300271        5.3814416142       -0.4860022307
 Si        11.1620419526       13.8729393565       -0.6440238115
 Si         1.8991151701       15.8310692926        0.2891144584
 Si        13.3882508834       11.9151711105       -1.2440393434
 Si         1.1303642726        8.2951863084       -1.0940541000
 Si        17.9181963940        5.4584411058       -1.7160570885
 Si         8.1800218240       14.6320478286        0.5772488061
 Si         1.0758051296       14.9526268854       16.7059800762
 Si        17.8171267408       16.6320057336       17.0054477432
 Si         3.4341966014        0.1890616046        3.4181842329
 Si         6.9209807208       18.1489819499       13.7192746467
 Si        17.6886663548       -0.0395114976       10.4129897617
 Si        13.9189364696       -1.2299979084       16.2093547972
 Si         3.2467328337       13.4563858119        2.1031113319
 Si        12.8570006667        4.6235373454       -0.8181126353
 Si         7.7446861952        1.6012217252       13.3877185591
 Si         3.8829678098       15.8145454481        3.7278382472
 Si         9.3181722587        0.7147923070       17.4900690867
 Si         8.3762047997        6.0621433388       -2.2807590674
 Si        12.1737589512       16.9870619056        6.2466845628
 Si        16.0891597223       17.5163028460       14.4686103687
 Si        17.0559175251       -1.1232965376        5.2694591926
 Si         1.6458355726        2.6072780234        4.2946359870
 Si         9.6100627587       16.5723574421       14.2118180831
 Si         4.4214586289       -1.0802869519       15.6342989240
 Si         7.5617171590        3.3880186226       16.0520140367
 Si        14.3436818539        4.3470593548       16.0025144888
 Si         9.0314129533       -1.7589478627        6.3270490626
 Si        18.3146181776       15.4828072769       11.8278206738
 Si        15.3078442911        0.3919112792       -0.7748689792
 Si         0.0253972377       12.0161708998       15.9647704041
 Si         0.7280663144       18.1250956531        2.3092121488
 Si        15.5862910897        8.7012451118       14.4926995021
 Si        11.6674538927        3.8526585701       15.1649504863
 Si        18.1270215070        1.9041536500        4.5314273418
 Si        18.2911434079        4.2259133946       13.6314559011
 Si        15.6901746444       17.2869521071        9.3163050511
 Si         1.2847047077        5.1206518906       11.8710245391
 Si         1.5983232170       10.8160034036       13.5401555040
 Si         0.2289367284        3.4389140024        6.6302803803
 Si        18.8940982183        1.5633895135       15.1135405256
 Si         1.3363584365        7.7317692809       13.4585370207
 Si         4.2806506080       10.8292847410       14.9661671893
 Si        16.5661003810        2.6215361224       16.7387659687
 Si         0.3383645770       -1.4145396719        7.0128995407
 Si        17.5955718455        3.3405243182        1.9440086755
 Si        14.4880212420       -0.4496260032        7.1286372756
 Si         1.9321666942       17.0395287291       14.2730032382
 Si         4.3699418874       -1.6524319076        5.9752573538
 Si        10.0718645896       13.9501636670       15.8496570744
 Si         6.1342512072       10.3666130608       -1.5646181916
 Si        -0.6509823502       18.5053101521       13.1276386725
 Si         0.9947127947        5.0093527588        2.4551901577
 Si        12.8185109575       16.5068050648        0.4324326179
 Si         3.0260782015        8.1117179324       15.8912543601
 Si        16.9124805441       11.5597374330       14.3419019153
 Si        15.7919769424       12.7518993251        0.6954809768
 Si        11.2288006138       -0.1643156021       15.0625548888
 Si         3.7022201079        3.6166396381       13.1515357207
 Si        11.3240462341        6.5448552521       16.6014384687
 Si        13.5539904562        8.8753435202       16.9136310069
 Si         1.2509262398       11.1777311088        2.1184973695
 Si         0.8049849254       16.0047238302        9.4100354245
 Se         8.2823715675        4.4922305948        9.7565773693
 Se         5.1330019759        7.3495157702        3.1985842110
 Se         5.7644722170        4.5228829256        6.3215706325
 Se        11.0770331954        6.5862824841       11.6928327839
 Se         8.3713932362        4.2892294741        2.3337242931
 Se        10.7273772353        1.1211311213        7.8647326088
 Se         3.6243855242       10.7719956547       10.6699217147
 Se         9.1771965121        7.5787818886        4.7701340852
 Se         2.2825246676        7.4192817109        8.7124831737
 Se         8.4525657194       10.8209696284       11.2549111862
 Se        12.5039958134        5.5288331372        2.7169615725
 Se        11.3773361133        4.9639212169        7.3855045562
 Se        13.9221704645        8.1066367829        9.4991448650
 Se         6.7329046982        7.1998533641       12.6093591047
 Se        13.6237514183        1.6101182423        3.8137834641
 Se        14.9037141836        3.6024607526        9.6835374517
 Se         6.7173309393       11.1138950319        4.3018751854
 Se         2.6134052983       11.9013193322        6.5756234690
 Se         6.4583072637       12.9611708584        8.2843219050
 Se        10.1776335405        8.7979786280        1.4976689742
 Se         5.8541034592        8.5263157580        7.7818881304
 Se        10.0518185126        9.4304101609        8.2179479629
 Se         6.4434077112       14.3304837784       12.6084886060
 Se        15.4627076486        8.2751726956        2.1061865449
 Se        12.5624981708        9.0131746118        4.7923647449
 Se        17.4040067555        7.0343618478       10.2291277051
 Se        12.4605278031       10.9416363139       12.2516562045
 Se        15.6853255737        5.7019326452        5.9478361109
 Se         7.8471491750       15.6334700198        5.8873612183
 Se        10.5332222966       13.9790329905        9.6557153555
 Se        10.3467586365       12.5914516061        5.5634551566
 Se        14.1253760255       12.4273285282        8.4532321793
 Se        17.0738532565        9.3993082237        6.0454872744
 Cd         6.4914610837        8.5678011803        5.1422536119
 Cd         6.5722099983        5.3386963378        3.9763625692
 Cd         6.7067796069        2.9582602120        8.2315308068
 Cd         6.2861751088        4.6819768015       11.4619494038
 Cd        11.4857149523        1.0514259274        5.3208186971
 Cd        10.2030583675        2.8498678396        9.7653775205
 Cd         0.2956583362        8.4082425126       10.0108422740
 Cd         9.5208455618       10.1669902279        5.3412259872
 Cd         3.5041849869        9.7430503117        8.2416299166
 Cd         5.1649925903        9.2726398219       11.9503324987
 Cd         9.1297111322        6.4202124919        1.1344968875
 Cd        14.1498272385        4.0381283503        4.5464919328
 Cd        11.3925987013        7.1580965131        9.0374884150
 Cd         6.9656953082       11.8852687577       13.3359866713
 Cd        15.1770157783        5.7490000214        2.2114754497
 Cd        12.9648659609        2.5180160035        8.0086524773
 Cd         5.1937578852       12.0601692224        6.1503211167
 Cd         5.0662543037       13.0798377985       10.5823926475
 Cd         8.6908709253       14.7863843814       11.4129125034
 Cd        10.5463225388       10.1461125423       -0.6046226011
 Cd        11.5191983788        6.5128304462        5.2421548563
 Cd         8.9574778722        8.2070823716       11.7701420102
 Cd        10.8514861042       11.4046340775       10.1686498454
 Cd        12.7957408848        8.4102184602        2.0285970671
 Cd        14.9556543384        8.2648346458        4.9823533900
 Cd        13.1445882241        8.2789003628       12.1527786838
 Cd        16.4241958055        8.8589488037        8.5335958523
 Cd        14.5659071744        5.8019166286        8.3544522182
 Cd         9.3640596487       14.4566299870        3.9217018553
 Cd         8.8824758166       13.8363771190        7.5267772182
 Cd        12.7494876716       13.3170612538        6.4045307708
 Cd         7.4851977187       10.3210395307        8.7927470147
 Cd        16.1031885825       11.8541219958        6.8235142498
