426
 i =     8400, time =    16800.000, E =     -8405.8660682932
  O         7.8326929898       -0.0110385968       17.7725976959
  O        13.8937447984        0.8347400568        0.4076160341
  O         4.5438106731       13.5281467449        1.4436958420
  O         2.4812927574       16.5431190921       13.0173956660
  O        11.0122993861        3.6560926069       16.4570503081
  O        17.8588353158       15.3207980615        2.6977504502
  O        17.4754797527       12.1751471939       12.9093376714
  O        10.7387655722        1.1180932898       13.8005750543
  O        11.0378318716       13.7140681478       14.8045425466
  O        -0.7141747525        0.0164353672        1.7943759999
  O         2.6057230203        5.0144137633       12.2918246020
  O         8.8282969282       13.1810968827       16.3946952047
  O         4.3768685365       16.5583603365        5.2549552235
  O        13.0644415341       17.3500282569       16.2063563444
  O        18.2852954667        1.2797141528        9.4826411099
  O        16.6403202516       17.6387358234        4.0155426667
  O         5.6638565131       18.0966618175       14.8284972595
  O         4.2686684137        0.8825525965        2.3064621197
  O         1.8254722967       10.0249701893       -0.7729756666
  O         8.2431460891       15.0694595118        2.2438547360
  O        -0.0847623529       17.7863419664        3.7218683031
  O         1.0013330959        6.7719782678        2.8552306416
  O         8.2147349447        2.5853047658       17.3003906046
  O        10.1511268978        1.0701777943        3.2699401255
  O        12.4328200253       16.1132576755        6.9236853551
  O         0.3442851028       15.5437999494        5.3581352042
  O         4.5674202002        0.5001142203       11.0245546565
  O        18.5228328760       18.4685534362       17.0755973761
  O        17.4701894885        4.0523360055       -1.8333007335
  O         6.0519522767        1.8758596449       12.5896653970
  O         2.9338416030       10.1038887318       15.7747384733
  O         6.8143088173       13.9116179043        0.4074338019
  O         1.3389941008        4.9764518801        0.9795594852
  O         4.2794768533        7.8469461164       16.4002985746
  O        15.4834007246       16.5023798509        8.5552498256
  O         1.1825238093       16.4226429818       15.3910874603
  O         4.4096076679        0.9897653548       15.8193892068
  O        15.4054265364       18.5670783577        6.0691421670
  O        14.4519717874        6.1208588888       16.3157652560
  O         1.5816267997        4.2994387816        3.5373047349
  O        14.4906140020        8.3415022482       -1.4956352105
  O        -0.8115695010       14.5691667986       12.5754560046
  O         1.4431189588        4.7896322749       -1.5706933162
  O        -0.2420253033       11.9042650897        3.0524576911
  O         3.9877554807       -0.1014182048       -0.0965336613
  O         0.5596904100        5.0035412262       10.5179753917
  O        10.1434098071        0.7636183376       16.5367983070
  O         4.2693039150       17.2491674696       11.1942256006
  O        16.4403838958       13.0217581412        4.5544377842
  O        12.7095527295       16.8432906827        2.0753268425
  O        17.1502062529       -1.1067533616        9.6042756371
  O        15.9484743212        4.4374545371        1.7884187573
  O         2.9332316858       16.8175729170       -0.3763518893
  O        -0.6670965731        5.9165937032       -0.2732651520
  O         3.9396580958       12.8673684331       15.7595167466
  O        13.9419101792       15.4199314129       11.6779496342
  O        17.8523907463        2.4754833219        1.2354997571
  O         6.1565107914        1.3218822249        7.7447684758
  O         2.0881806086       14.7401000346        1.2028067784
  O        18.5149715461        4.8207980199        2.5277844806
  O        11.9486666292        8.3239674887       16.8203452210
  O         8.0363107199       -0.5366956227        2.4337816024
  O         5.8206944853       18.3624017801        9.2269200257
  O        10.2660710368       10.8554221306       16.6866970987
  O         3.6966439361       -1.3144267623        7.3965000600
  O        -0.0200947514       12.0150634114       -1.8279854474
  O        12.4558768055       17.4828167317        4.6425662412
  O         2.7999490661        3.7247264584       14.7417870316
  O         3.1357886210        2.4102554351        0.1049900571
  O        13.7590027103       13.6571796353        4.6380698560
  O        18.1428416620        2.9828286551        6.1187527931
  O        12.0312280929       14.9651950022        0.2433083873
  O        18.8251433942       -0.0663014368       11.6348346189
  O         5.6326661349       11.6845982061       -0.1804990119
  O         8.6263199648       -0.5678469922        4.9555178143
  O        16.3375131688        0.8746622664       11.2804149326
  O        14.5690767939       -0.0904593905       -2.0060139924
  O         5.8272268296       -0.7677420143        6.2144876378
  O         9.8720169535        1.4714946170       -0.4139627515
  O         3.8529881751       -0.2750452325        4.6456695333
  O        17.4272196647        5.9301589017       14.1248714726
  O        10.4703796005       17.8489856109        6.5375581059
  O         4.5805207710       14.0365900860       -1.1785457833
  O         2.2649519259       16.8195926199        3.8825359577
  O        13.5448936247        4.0451403431       -1.8477402135
  O         4.9116001748        6.7001172078       -0.5698682308
  O         5.7066827480        1.8930590072        0.2808663263
  O         1.2535795443        9.6721317390       13.0008538529
  O         8.0417041613       -0.7348784662        7.5670795173
  O         2.8765610026       14.7869591629       11.0620041490
  O         0.8489489931       17.3025760012        1.0794175102
  O         1.5307898811        8.2190868864       16.6739839976
  O         9.5942385721       14.0233872646        0.2353292863
  O        16.7226071773       11.0029660407        9.7043383658
  O        17.2460442744        1.6994099821       16.1939400136
  O         9.3485699030       15.7874552196       15.6715717272
  O        14.5906996143        1.6481414706        6.8903618006
  O        10.4141110758       18.0653064546       14.8163508750
  O         7.9530112298       17.2330156822       14.0618661202
  O         6.7991995564        7.2974183384       -2.4767752952
  O         3.4038923252       14.5908263431        3.5673437175
  O        10.0248435395       16.0554416190       13.0856540739
  O         1.8010132201       -0.4126422521       -1.6504456848
  O         3.3700904873        2.4242027882       12.4880184973
  O        15.5440481319        3.7249048440       15.8724062684
  O         3.1480325389       18.2652169159       14.8084285333
  O        17.2036900830        0.7256975502        4.8409821864
  O        17.1838915842       -0.4419941961       13.9023782984
  O         8.3864236306       11.0299478086       14.9544491265
  O        13.8057679531        6.0878648727       -0.3363430879
  O         4.9259047467        3.1872766414       10.4827457028
  O         0.1869528348       17.7782068611        8.4958518529
  O        12.8418140770       18.8607826758        6.9140278597
  O        11.4999056920        5.9276601837       -1.6071548763
  O        14.8856253895       -0.2437421348        8.6143801313
  O        16.4667243924       17.0559398968       15.7965980497
  O         8.0177528441       16.3661533212       -0.1509765874
  O         0.3336530437       13.8317854166       15.8550574090
  O         5.2778138019       10.9197856308       16.4366082629
  O         1.7938569530       17.2108800558       10.4429051529
  O         4.9656624327       16.6518132726        2.7829056069
  O         1.3805571418        3.1674985168        5.9783657339
  O         1.6047443068        1.3662995118        9.5580374296
  O         8.1595007499        5.1267090526       16.1215480563
  O        15.0261117177        8.2182847169       13.2776265784
  O         0.7839949012        8.6390903385        4.7932515927
  O         5.9231395763        3.8490671073       16.9863979899
  O        10.9132968938       14.7552537251       17.3543387820
  O        15.5307578734       15.4431270359        4.0481486347
  O        17.5309250689       12.2567864627       15.5768663625
  O        -0.0123881562       10.9547420263        8.9392540670
  O        11.0990755267        6.1062792081       15.2460512905
  O         0.9162994839       18.5981842965       13.8439153345
  O        18.5767121344       12.8368302276       10.5192453598
  O         1.5614820110        7.2894943282       -0.2314849284
  O        18.2362432581        6.4113240346       16.5171841867
  O         0.1830744729        3.1931210921        8.3017742283
  O         2.4566337299        7.8047967634       14.4268908843
  O        -0.5636512521        1.1373166482       13.9064751827
  O         0.7746604379       12.2862475994       12.4687907299
  O        14.1527150770       12.0879834507        0.1293034146
  O        10.3575220793       17.7105581083        2.9774966773
  O         1.2814925825        7.1764686518       12.1715335444
  O        -0.3513643821        1.0205487997       -0.6217025962
  O        18.4492492181       15.8567313451       16.5700886457
  O         0.1147159529        0.7394458535        7.3049278810
  O         7.4808795234        0.4511186813       14.1419692445
  O         8.7124613436        2.5488041873       12.7171711821
  O        18.3762049395       17.1187011948       12.9798629269
  O        16.2738790191        6.4081138755       -1.1042815138
  O        14.7945814464       -0.3540237433       14.8247487590
  O        13.5780628384       13.0481116222       16.9682259772
  O        15.5553464832        2.2809745228       -1.2128700136
  O        -0.2606974181        7.8830518100       14.2813488468
  O        17.1952695113        3.7815469469       12.7063880917
  O         1.1128636983       18.1176195318        5.9417327845
  O         2.4010411462       12.2896227891        2.4392050043
  O        13.0347292379       10.5467515789       -1.7411057110
  O        16.5443514821       15.7586902194       11.4605025890
  O         4.3880513931       18.0066106228       17.1527927213
  O        14.1199473851       16.3714834428       -0.1525897505
  O        11.5799440919       12.4644394009       -0.5806140429
  O         7.3419033497        3.0203548264       14.8477644398
  O         6.5023318767       18.3070316862       12.0379804275
  O        16.7552227892       12.0571319361        0.7505058737
  O         2.4691699803       14.7876732510       16.7641354940
  O        16.0283808114       16.7669726571        1.6347706007
  O         1.8223163433       -0.2072145081        2.7357288450
  O         0.2554651782        5.0228247881       13.1612046754
  O        14.7669255277       17.7580227797       10.8426168686
  O        16.6526562965        8.2297446937       15.4466753846
  O         7.7149227618       10.9028059960       17.6625977320
  O        16.1951803855       10.4576044494       14.1729009433
  O        16.5604708309       16.9376809319       -0.9988412652
  O         0.6581620641       11.7720670162        0.5592183279
  O        18.8795633409       16.0398627382       10.4109899886
  O        19.3271446472        5.3842412759        6.6635495044
  O        16.5330081194        0.3230220026        0.1166830108
  O        17.9225992412       -1.2769604405        6.5083705752
  O        17.8166084524       12.8580786300        8.0157997014
  O         0.7013514992       15.5476341316       -0.9597484826
  O         2.5611258999       12.3294788900       -1.3717678371
  O         5.1434897968       10.6210380509       14.0071481114
  O        11.3106808722       15.2410310266        3.4840452268
  O         5.6011105859        9.2242953586       -0.9369047839
  O         2.9203279935       11.7035580981       13.8512673414
  O        16.9786120739        3.0341788874        3.6869111823
  O        12.5200921140        0.5300635599       15.5814192058
  O        -1.1239285179        8.5363456926        2.7397176173
  O        15.3074175907       13.1252640535       14.3247446617
  O        14.9057136097       13.2678176847        2.3109764518
  O        13.0336314488        4.3129028624       14.8116437808
  O        11.0270567021        2.5872297450       11.4685925511
  O        18.7146904876        3.4938931832       14.9821851235
  O         9.3783396999        7.2814323710       16.8568636692
  O        10.7183732725        3.9158663636       13.7669200321
  O        15.2730765731       16.9512280216       13.4795341864
  O        11.6057770516       17.6125561468       -0.0273799512
  O        -0.5603221626        8.8168957709       -0.9357302577
  O         0.0685509374        2.0883784221        4.0229620579
  O         4.9693777589        4.5809723334       13.3544799965
  O        14.1352036138        9.5053265519       15.4738311691
  O        15.7850297130       14.4425663124        0.1635666062
  O         0.4721093381        1.3545657847       16.3770071050
  O         1.2718715530       15.2802175990        8.6263710458
  O        12.0466369040        4.0839744733        0.2934332442
  O         0.4426199611       11.2555768369       14.9675575086
  O         8.1388736328        5.7085825550       -0.6493636434
  O         2.8046635271        2.0472640403        4.1243927269
  O         1.2767649075        9.7676741643        2.4100939626
 Na        10.5808975111       11.3578473898       14.1984590746
 Na        18.5405907041       13.9481706656        0.9329723619
 Na        14.0352339266        3.1093060906        1.1278484620
 Na        17.5079875655       10.6608638852       -0.8344217756
 Na        18.5725927454        6.6943317576        5.0894727161
 Na        11.4294228003        0.2114118731        1.0108521949
 Na         5.9649947629        4.5088440994       -0.0376374371
 Na        12.0575426648       15.3092432919       13.0202419363
 Na        -0.1184090526        6.0632575520        8.8338298786
 Na         0.3842602909       14.0220022685        6.9426476953
 Na        13.1288702539       10.5946927592        8.0830081132
 Na         5.4027748292        5.3949475705       15.4211084476
 Na        10.6910483717        3.1718882144        2.0871788571
 Na        14.2426962899        0.6903210086       11.0423980204
 Na        16.1023846691        1.8657936666       13.2703773864
 Na         0.3581126086        9.7894088295        6.9321375173
 Na         9.7722168397        4.0267168720       -0.9150186620
 Na         2.8660854084       14.0562223021       13.5685134138
 Na         7.7365942753        6.5858715361        7.2606737345
 Na        17.0996631897       14.8132465093        8.8234652247
 Na        -2.6273997815       10.1090851229       11.7674829198
 Na         9.0207767409        5.4556568907       13.7267175770
 Na         3.4485310881       15.9262190766        7.6427195238
 Na        15.7529505281        6.1340715607       12.4458708203
 Na         6.0049463658       17.9099358877        1.0860811950
 Na         2.6767526628       10.5143673627        4.2026952254
 Na         2.5023844198        3.9406587808        9.6945296923
 Na         0.9991114379        3.0477159816       -0.0170899424
 Na        17.4231578751        7.6280772759        0.9238483925
 Na         1.4897223481       13.1966875561        9.9160282802
 Na         5.9779128408       10.1178453323        1.6733966698
 Na        13.8383376892       15.4139992990       17.0379341701
 Na        13.0002403598       15.9676185457        9.2783766576
 Na         7.0465901776       17.1128049140       17.3501712008
 Na         6.6487439281       -1.8128957505        4.1286678475
 Na        11.9686377603        1.9679403621       -1.7002485788
 Na         5.8617918426        1.2671503705       -1.7728592502
 Na         2.1711427742        7.0134407223        5.5836510773
 Na        14.6598464608       13.2561344091       11.1192191624
 Na         6.1787537707       14.5881204696        2.6715286575
 Na        14.4808662266       18.5773576799        2.7263293440
 Na         3.6614862203        6.8914351840        1.1281161982
 Na        -0.6825533466       13.7895342262        4.1735400632
 Na         2.3714880464        1.3503575918       14.6175997309
 Na         3.5607886176        0.5498722483        8.5876340218
 Na        13.3196070377       12.5966618696       14.9335858508
 Na        14.9988745921       16.2409663742        6.2407773704
 Na        16.5104981803        2.1641601614        8.1857411144
 Na         9.2159753142       -1.2089026476        0.5416682150
 Na         5.5873133953        2.1536585949        5.0808448028
 Na         7.7320159824        1.5925479762        1.2007688383
 Na         3.3877670236        3.1466908761       16.9419114337
 Na        18.2551897119        3.4324418778       10.7475398543
 Na        12.4539719749       13.5036684811        2.5368955950
 Na        11.0334690786       17.0497119442       -2.2158102193
 Na         7.0029388232        8.9987274799       14.9134741924
 Na         1.6915412945        0.3141283903       11.3997430135
 Na        17.1956560053       10.9724198515        2.8058601830
 Na        16.9163636317       14.8569408019       15.0412436717
 Na         1.2804249648        5.1586842810       15.5530357624
 Si        -0.6872851923       12.9716357782       12.1264647737
 Si         3.2071168347       18.2900718610       -1.0778227521
 Si         5.3968312696       13.3314342718       -0.0018516805
 Si        14.7876359968        6.7365160020       -1.5087065712
 Si         0.4082198431        8.4583635446        3.2047294164
 Si        11.5800895027       16.7896147217        3.3653459127
 Si         5.3341453058       18.3970880722       10.8217572649
 Si         1.2748442090       11.5055336769       -0.8895202182
 Si         0.9065307812       16.8975046795        4.7755717619
 Si         3.3393746214       13.4688467403       17.1394442771
 Si        15.0980863231       16.4155205863       11.9160245259
 Si        18.0133892749       11.8506362953        9.2532235666
 Si        17.9432102667        0.9453306407        0.6953569748
 Si         8.8037184604       11.5123552727       16.4272599288
 Si         6.4412120220       -0.2487326603        7.7330712008
 Si        15.7481427130       16.0692752568        0.1511803886
 Si         0.3544894821        1.5424009476        8.6599526288
 Si         0.2501273716        0.1699161095       -1.8062493550
 Si        17.9087565289        7.1362397249       15.0888379016
 Si         9.2546677611       -0.3083253462        3.4084947185
 Si        15.1324688083       13.7874466983        3.8805740906
 Si         5.3283691136        7.7696681362       -1.5959110827
 Si         4.2297419467        1.4556931936        0.6633336223
 Si        10.3740054698        2.5654322272       12.9046153566
 Si         4.7776541101        1.9935397878       11.6254430726
 Si         2.8742751826       16.3554309128       11.3946336781
 Si        16.6192405946       16.1678599339        3.0964175421
 Si         0.9761590585        5.7722406176       -0.4202068617
 Si        10.9975136777       13.9994705114       -0.5755232775
 Si         1.6114459745       16.1086101800        0.2151280122
 Si        13.1598786725       12.1730738907       -1.2216958519
 Si         0.9723085777        8.6019862803       -1.1419050977
 Si        17.6532597411        5.6726583397       -1.5023283337
 Si         8.2387148382       14.9429130833        0.6591249089
 Si         0.7377206181       15.2957287139       16.5780160953
 Si        17.5206834644       17.1075419484       17.0782318400
 Si         3.0727135888        0.5525389660        3.3646114571
 Si         6.8375881809       18.3654798598       13.7275263426
 Si        17.6067169406        0.1719217504       10.5739597970
 Si        13.6929490714       -0.6112128090       16.1015614927
 Si         3.0157045558       13.7551807421        2.1772113956
 Si        12.6453851682        4.9942966261       -0.7990821481
 Si         7.3714748806        2.0094180980       13.5972383932
 Si         3.7614052676       16.2099570130        3.7388227788
 Si         8.9937485190        1.0856273473       17.6725132661
 Si         8.0484516190        6.3347225531       -2.1155670928
 Si        12.0466660784       17.5007441487        6.2604433520
 Si        15.9986672991       18.0191216358       14.5231962304
 Si        16.8938273691       -0.8100037548        5.3173514041
 Si         1.4268830605        2.8910198291        4.4017042469
 Si         9.4767378814       16.7855925235       14.4007286772
 Si         4.3976336552       -0.5737319421       15.6571147040
 Si         7.3777843506        3.5990585237       16.3790102419
 Si        14.0796042556        4.5079019291       16.1214798660
 Si         8.8668475926       -1.5206106607        6.3056391522
 Si        18.1410684324       15.9828240910       11.8459221377
 Si        15.0852973467        0.7773416494       -0.6668071695
 Si        -0.2654436325       12.3397188341       15.9910780489
 Si         0.4607767187       18.3871901369        2.3702865505
 Si        15.4729205502        9.0378542753       14.5938824442
 Si        11.4233983668        4.4286987572       15.1428696235
 Si        17.9550119609        2.1311379294        4.7076485375
 Si        18.1918657590        4.4619843859       13.7511307531
 Si        15.5811643463       17.8555599369        9.3737294974
 Si         1.1157688696        5.5716529918       11.8959369811
 Si         1.4650098739       11.2203661443       13.5855005901
 Si         0.0195771583        3.7672721031        6.8030998684
 Si        18.6385012972        1.8647456867       15.2884498382
 Si         1.0979065021        8.1076641213       13.4667179239
 Si         4.0558085736       11.1523124138       15.1981371396
 Si        16.4468635747        2.9339637330       16.9463180405
 Si         0.0215536288       -0.8894369605        7.0696504408
 Si        17.2823189197        3.7498805391        2.2391121530
 Si        14.4145140150        0.0502797963        7.0798129633
 Si         1.8458168703       17.3613556299       14.2877501696
 Si         4.2654110132       -1.2296814160        5.9812058645
 Si        10.0492714221       14.2776968515       15.9701618584
 Si         6.0093826444       10.7560556981       -1.5562257658
 Si        -0.7015684964       18.8361493209       13.2302477389
 Si         0.6721841298        5.1927630576        2.5008351508
 Si        12.5980940279       16.4786949967        0.4873303803
 Si         2.8557620361        8.5140320786       15.8558923518
 Si        16.5134838676       12.0636864878       14.2862810845
 Si        15.4418959057       12.8992367712        0.7975158969
 Si        10.9104764493        0.2228049868       15.1778338762
 Si         3.4951607055        3.9858092912       13.3265849873
 Si        10.9514404631        6.9941610805       16.6673348034
 Si        13.4308844668        9.1679519745       16.9180136237
 Si         0.9488540395       11.4058357265        2.1229924506
 Si         0.7179595158       16.5366369974        9.4144319713
 Se         8.0757813805        4.9360928008        9.6642082955
 Se         4.5957091886        7.8226159906        3.7634948621
 Se         5.3509471761        4.7712663838        6.2848621227
 Se        10.7532596463        6.9918140692       12.0170115456
 Se         7.9481864529        4.4956934672        2.7146457865
 Se        10.7070666011        1.3656404070        7.9243137314
 Se         3.8772787634       11.3183570240       10.5218799237
 Se         8.6800221742        7.9298630818        4.6749848425
 Se         2.5162514916        7.8727591629        8.6518942906
 Se         8.3064390058       11.1246963254       11.4892469221
 Se        11.8701144181        5.5900383448        3.1079938029
 Se        11.1722979675        5.3998305431        7.4894624781
 Se        13.8604056783        8.0998538329        9.5137482788
 Se         6.3488530425        7.4965566121       12.4555484204
 Se        12.9986874360        2.0649167642        3.6038625639
 Se        14.7809124202        3.8126591163        9.7508401700
 Se         6.5365682107       11.7363388787        4.0728238253
 Se         2.8759956976       12.1972376123        6.6999959984
 Se         6.5478122252       13.5648873367        8.5151417731
 Se         9.7687232674        9.2181532860        1.4210975896
 Se         6.0271050320        8.9784834080        7.9096448221
 Se         9.7768974830        9.7779701375        8.7425352416
 Se         6.3189552949       14.5336846834       13.0414546377
 Se        14.7648559296        8.4719263124        2.2097086855
 Se        12.2835700843        9.5067759017        5.2073429552
 Se        17.6785707762        7.6618813649       10.5479002642
 Se        12.7577738237       11.0115920616       12.2010145554
 Se        15.5652828997        5.5790534155        5.6520544722
 Se         7.9465976974       15.8855121545        6.1225120858
 Se        10.6095778480       14.3531481127       10.0230636347
 Se        10.1928891854       12.7637538094        5.7114341011
 Se        14.3561187646       13.0587636908        8.2350156908
 Se        16.8230317406        9.5220524662        6.1312760917
 Cd         6.4542834253        9.3903005956        5.1874243077
 Cd         6.4268578674        5.9678059644        4.1945386738
 Cd         6.2422765603        3.4187157706        8.3073850597
 Cd         6.0826484339        5.0241262122       11.4369708961
 Cd        11.2375741724        1.6173299462        5.4071767282
 Cd         9.8859626260        3.1177344340        9.5589982320
 Cd         0.3752647914        8.9956955505        9.9960186927
 Cd         9.6861773475       10.1750843772        5.8949796627
 Cd         3.5767513782       10.0987208338        7.9956966534
 Cd         4.9165659826        9.5414293864       11.8334688681
 Cd         8.7086525964        6.7246847756        1.6093181505
 Cd        14.5980089549        3.2986754176        5.1171153255
 Cd        11.0788418448        7.4009617609        9.2842048785
 Cd         6.8931258464       12.1131184118       13.6987894013
 Cd        14.5802337557        5.8633550368        3.1434691430
 Cd        12.9119329333        2.7334880654        8.4314367977
 Cd         5.2504675842       12.7776475544        6.1112505221
 Cd         4.9833236783       13.5412426603       11.0026414536
 Cd         8.6027409444       15.0464011410       11.7260199304
 Cd        10.3490688302       10.0697002695       -0.7958468203
 Cd        11.4141396119        6.9291621140        5.2939881730
 Cd         8.6986756926        8.5777099836       11.2809578534
 Cd        10.9548360284       11.6799029183       10.4698470443
 Cd        12.1283083800        8.2360718197        2.3438752665
 Cd        14.7777824186        8.8480711755        4.8309784748
 Cd        12.9706114638        8.4288693968       12.1583600597
 Cd        16.2924129651        9.0347287955        8.6699453084
 Cd        14.1398152163        5.9135178773        7.9644065726
 Cd         9.1859532748       14.6586445373        4.0855253356
 Cd         9.1194416733       13.9643411929        7.8114808238
 Cd        12.6542820829       13.7859334858        6.4465998736
 Cd         7.1595706940       11.0981081204        9.1368198813
 Cd        16.3586106707       12.0390022329        6.5412151352
