426
 i =     8000, time =    16000.000, E =     -8405.8469254992
  O         7.8536515029       -0.1920673681       17.8535884560
  O        13.9422633260        0.6322998054        0.5817571280
  O         4.4762720875       13.2138106578        1.3639154661
  O         2.3796086578       16.3831723614       13.2017666422
  O        10.9504974032        3.4493345062       16.2898764729
  O        17.7447039394       15.2225978191        2.6125713789
  O        17.8926937135       11.8082403019       13.0407700051
  O        10.8149413451        1.0993489160       13.9782739042
  O        11.0408122183       13.6854832079       14.8881543004
  O        -0.7349044923       -0.1974834334        1.7876570596
  O         2.4549879420        4.5783461988       12.2696570225
  O         8.6606136606       13.2917957643       16.2861444944
  O         4.3146354156       16.6502771110        5.4725867060
  O        13.2767316821       17.0448750312       16.5017508666
  O        18.1942404829        1.5082627230        9.5218963150
  O        16.7151198922       17.5425907986        4.1435005822
  O         5.6114599141       18.1300894369       14.9004997992
  O         4.3795006782        0.7182229042        2.3511653052
  O         1.9721851767        9.9338962705       -0.8044644824
  O         7.9644803410       14.6272377040        2.1927106928
  O        -0.1241314579       17.6436357368        3.6765625129
  O         0.6023503099        6.9103271797        2.9841732504
  O         8.1016243055        2.4342130498       17.0689329559
  O         9.9405666862        1.1356241067        3.5710513380
  O        12.5923818408       15.9801130040        6.9007544735
  O         0.1214207147       15.3725287965        5.4662834825
  O         4.6967772273        0.4743504525       11.3307675133
  O        18.5804316794       18.4076751775       17.4596065234
  O        17.2442798031        4.0932132653       -1.5838699184
  O         6.3623628748        2.3581699377       12.1595021464
  O         3.2332507072        9.9442002271       15.4566355654
  O         6.8223608763       13.7545472262        0.1909086086
  O         1.4045172825        5.1267123192        1.2366089028
  O         4.2798432186        7.7625368439       16.5543088235
  O        15.6717560142       16.4067025868        8.5021319919
  O         1.0432073064       16.5492123272       15.5280230453
  O         4.2270785654        0.8228466107       15.9881576237
  O        15.5954744025       18.6210093237        6.1888777275
  O        14.7486089486        5.8867478987       16.4779730928
  O         1.3703793284        4.2928040123        3.5475170807
  O        14.3320585316        8.1948107421       -1.5143849400
  O        -0.8396283058       14.4580563760       12.7330845844
  O         1.6652341832        4.7339239559       -1.3196439427
  O        -0.1388879111       11.9498365396        3.1255658283
  O         4.2168479531       -0.0803396564       -0.0980694761
  O         0.4420033306        5.1105449570       10.7825740500
  O        10.0729719925        0.7463088708       16.7077953131
  O         4.2264657282       17.3424888411       11.1716705794
  O        16.3431223637       12.8568396908        4.7632640472
  O        12.5694761799       16.9384176140        2.0846529297
  O        17.1145683099       -0.9974779404        9.5941131100
  O        15.8792954401        4.3663666356        1.5831619579
  O         2.9927993666       16.9100448902       -0.2431936527
  O        -0.6149033634        5.7449024964       -0.2635015935
  O         3.8880780029       12.8889923196       15.7066219634
  O        13.8575512296       15.3777430612       11.5201620647
  O        17.7658636045        2.3953662321        1.2045884314
  O         6.3172640798        1.2725350266        7.9929316514
  O         2.3805074616       14.7649324235        1.2378382747
  O        18.3697275012        4.8038462245        2.4657275854
  O        11.9705471814        8.2985770111       16.5127266766
  O         7.8811671620       -0.5077064098        2.5187874202
  O         6.0694199705       18.4984165721        9.5072666654
  O        10.1728676464       10.9615459640       16.6296023379
  O         3.4928737461       -1.1461895596        7.4891625392
  O         0.0616450870       11.6769814620       -1.8529296094
  O        12.3395552378       17.4932611775        4.5945168808
  O         2.7282707019        3.7233131418       14.8102870671
  O         3.0017682414        2.2050088413        0.3640069200
  O        13.7680298292       13.2171441864        4.4981876451
  O        18.0777834629        2.9928906677        5.9399334262
  O        11.8402535538       14.9727800850        0.3774740486
  O        18.4943132942        0.0037291902       11.6167969852
  O         5.5223510519       11.4975816467       -0.2986186416
  O         8.6013133117       -0.6263120204        5.0684363805
  O        16.0737071851        1.1597494216       11.0479878863
  O        14.6342624427       -0.2240516655       -1.8223039023
  O         5.8591634607       -0.8578969056        6.5002536311
  O         9.6395656015        1.6043074241       -0.1856401395
  O         3.8799170318       -0.2785146633        4.6877352766
  O        17.4284470141        5.9871204411       14.1498954984
  O        10.5340960528       17.8063215108        6.6293503034
  O         4.6580020009       13.8769744495       -1.2205507975
  O         2.1565937888       16.4643724823        4.0525278116
  O        13.4681305293        3.8893568527       -1.8922805904
  O         5.2050317791        6.5671060760       -0.5063901501
  O         5.7284673641        2.0256469745        0.3700782058
  O         1.4986806731        9.6938747828       13.1816172543
  O         8.1240581280       -0.9332179914        7.7559818033
  O         3.3102749269       14.8134174027       11.2364929449
  O         0.8879299644       17.1365531780        1.1822893983
  O         1.5302149475        8.1818836353       16.8421654644
  O         9.5237322233       13.5751398385        0.1680532846
  O        16.6415200491       11.0529815732        9.9372796305
  O        17.2529911233        1.7022829538       16.3758987201
  O         9.4725394238       15.7972184302       15.6782541228
  O        14.4739182248        1.5390399163        6.9062172983
  O        10.2919895407       18.1344235402       14.9697155848
  O         7.8196743598       17.2891702871       14.2945940038
  O         6.8204560712        7.2245854702       -2.6018589769
  O         3.8470877686       14.5663488502        3.5700043455
  O         9.9938085737       16.1485671268       13.0948966062
  O         1.7466567746       -0.3918811621       -1.3688260915
  O         3.7059660937        2.3712366639       12.8051768117
  O        15.5714716491        3.5049580862       15.8607192463
  O         2.9234193054       18.3397587843       14.6361565870
  O        17.4821372702        0.5437740053        4.9877008183
  O        16.8590490362       -0.4900592753       13.5914343962
  O         8.3306613067       11.1928902565       14.7917756676
  O        13.8877882214        5.8773316317       -0.2257588877
  O         4.7373818283        2.9581642218       10.3379795991
  O         0.5089309507       17.7558639234        8.7170603011
  O        12.9792375748       18.6982888335        6.7360167987
  O        11.6360531421        6.0833150812       -1.5427264786
  O        14.7899379756       -0.4282773364        8.6162193299
  O        16.7923065468       17.2268487748       15.7805527193
  O         8.3959238788       16.0105624833       -0.2290116837
  O         0.4063066334       13.9896138560       15.9308965482
  O         5.2997840783       10.8811939362       16.4762621725
  O         1.7843854896       16.9450903765       10.6297378239
  O         4.6886734747       16.9467407905        2.7256743373
  O         1.3246108292        3.1516160316        5.8723407369
  O         1.5401109032        1.4715193866        9.6654336811
  O         8.2657875845        4.9995813763       16.0647674467
  O        15.1264059236        8.3611074096       13.2539231875
  O         0.9969321352        8.7352147026        4.7546527636
  O         5.8567121255        3.7223628373       16.5214150681
  O        10.8018700972       14.4773512219       17.3695729919
  O        15.4193843017       15.3844367109        3.9979180730
  O        17.6258175298       12.2887314080       15.6929921630
  O        -0.1575942457       10.7526849252        9.3053229420
  O        11.1071341029        6.0382489287       15.2184546610
  O         0.6310209377       18.4397752398       13.6293380253
  O        18.4529147235       12.9256731710       10.6076896979
  O         1.5825418831        7.2992807752       -0.0547041440
  O        18.3637817994        6.3010198007       16.5181850152
  O         0.2270933643        3.1659402520        8.1636938353
  O         2.4950424690        7.6260262786       14.6368391459
  O        -0.7789543703        1.0154503688       14.0201912191
  O         0.9410678791       12.4945076773       12.4700150661
  O        14.2891376422       12.2999925882        0.0423016369
  O        10.2274197718       17.8582360270        3.0063949272
  O         1.4062438050        7.1144921009       12.3829204825
  O        -0.2491392803        1.0624276399       -0.4477740682
  O        18.5291353243       15.7046967092       16.9969448868
  O         0.2315883425        0.5577760678        7.4639321908
  O         7.2984246392        0.5362669375       14.0230953014
  O         8.8793771119        2.2281192355       12.5440474878
  O        18.0996070870       16.9843047463       12.9425625528
  O        16.3998204857        6.7185519104       -0.9808004067
  O        14.7257321183       -0.5866043310       15.0713873859
  O        13.6298564400       12.8755661845       16.8802820688
  O        15.4613244699        2.1278529663       -1.1212931615
  O        -0.1738378093        7.9618700793       14.4212570090
  O        17.1773072005        3.7781371040       12.8385164693
  O         1.0481786833       17.9267494925        5.9807370674
  O         2.4692761043       12.3253681640        2.7383618995
  O        12.9564300618       10.4120946469       -1.4719390926
  O        16.4365595866       15.4709135615       11.4442267868
  O         4.0698242050       17.7583409438       17.0731950058
  O        13.9093796387       16.8210845455       -0.1182158375
  O        11.7135196751       12.4536607892       -0.4824337434
  O         7.4315247137        3.1062031071       14.4308400621
  O         6.5180344783       18.1508756317       12.1131394071
  O        16.9140085235       12.3826375008        0.4531125332
  O         2.5911491639       14.8660010171       16.7958244684
  O        15.8912916732       16.9747605529        1.7569693034
  O         1.9332368379       -0.3471398159        2.6511293285
  O         0.2878599272        5.0671914116       13.4845109140
  O        15.0207588564       17.6726456000       10.9060018149
  O        16.7293599268        8.2636031281       15.4502534690
  O         7.7001659392       11.0058683896       17.5406587275
  O        16.0280011206       10.5609372708       14.1710697967
  O        16.5504778613       16.7778015841       -0.9180340922
  O         1.0382585847       11.9375628943        0.6893506503
  O        18.6866069662       15.9896162916       10.4124138034
  O        19.3375239204        5.3359867616        6.6608966892
  O        16.4749892806        0.1590930889        0.2600943724
  O        17.9799845698       -1.4336161923        6.7326147802
  O        17.8375355457       12.7699633481        8.0994412842
  O         0.9701320789       15.3042247534       -0.8434388585
  O         2.6476721904       12.4841998053       -1.2475018169
  O         5.2825440100       10.9084580207       14.0140054415
  O        11.2178522074       15.2430971868        3.5020364178
  O         5.9455231820        9.0688652853       -1.1233083358
  O         2.9966114723       11.6921083152       13.8604108077
  O        16.7767311919        2.8123665459        3.6731450050
  O        12.4062847685        0.1844691186       16.0074366173
  O        -1.1075849297        8.9041081264        2.9032361493
  O        15.6575114668       13.1438809403       13.9724710346
  O        15.1230502511       13.3069542872        2.2774728699
  O        13.1756357467        4.3227037292       14.8549084404
  O        11.3164871045        2.1198896318       11.6162065629
  O        18.5846027523        3.4753615692       15.0731622036
  O         9.4489089542        7.3749866557       16.8995569847
  O        10.8075184329        3.8130419267       13.6498218448
  O        15.2004125508       16.7407424858       13.4549571819
  O        11.2642044691       17.6316594691       -0.2301801081
  O        -0.4922206212        8.7366294579       -0.7814230686
  O        -0.0028141929        2.0086834155        3.7944874852
  O         4.8741499488        4.6963004544       13.2126853567
  O        14.2600656805        9.4943279381       15.6324738787
  O        15.4734921900       14.7842675773        0.1140958274
  O         0.4090820992        1.3523256160       16.3699356760
  O         1.2534909133       15.1558580062        8.7436141754
  O        11.8972344242        3.7990195178        0.0555173648
  O         0.7326182577       11.5027921707       14.9859934414
  O         8.2742087679        5.5769385608       -0.7420797965
  O         2.6904170850        1.8196504644        3.9559368184
  O         1.4154966418        9.8715764179        2.5809729094
 Na        10.5772939845       11.3643071569       14.2054549092
 Na        18.6986730372       13.7603201030        0.8076498900
 Na        14.1949787421        3.0341376867        0.8142068965
 Na        17.4183240634       10.8692950441       -1.0710299788
 Na        18.0454991627        6.9446750006        5.4095259892
 Na        11.4492054438        0.1797954637        0.8543359600
 Na         6.4666380954        4.2377885048       -0.0008118025
 Na        12.1730989920       15.0384797353       13.1253995914
 Na        -0.3414644608        6.0187690877        8.9832686593
 Na         0.2937951984       13.8944611883        7.0552782543
 Na        13.0176729409       10.2969909789        7.6474684339
 Na         5.0505388749        5.6312992680       15.4501953507
 Na        10.7842275428        3.1655608107        2.0857934943
 Na        13.9783739997        0.7956485972       10.7798417277
 Na        16.0908384876        1.8736972561       13.2404954376
 Na         0.4749244838        9.8642797425        6.7852579891
 Na         9.8237898302        3.8290876281       -1.2200652605
 Na         3.0304626091       14.0739304450       13.8601598622
 Na         7.7841024101        6.4570613091        7.1955588309
 Na        16.9374480420       14.5997461011        8.8580069074
 Na        -2.7187280444        9.7639015607       11.8316832585
 Na         8.9550521604        5.2402298281       13.8132250397
 Na         3.3768312601       16.0206794896        7.7240874731
 Na        15.7436578772        6.1375828679       12.4617915704
 Na         5.8258060442       17.9677353739        1.2487221610
 Na         3.0331258582        9.8758888378        4.5722967302
 Na         2.6190283802        3.7213396271        9.9115179632
 Na         1.0389258010        2.9073506927        0.2900695586
 Na        17.9116207376        7.7532647801        1.0509961304
 Na         1.6395641510       12.9776469338        9.7495810263
 Na         5.5128823692        9.7501787408        1.3305023246
 Na        14.0133084318       15.0858327277       17.0358035786
 Na        13.1111654956       15.6736633670        9.3710781856
 Na         7.5389272297       16.7012285991       17.1026912018
 Na         6.6494070745       -1.7116691635        4.0735864973
 Na        12.1761806140        1.8878592809       -1.8659513006
 Na         5.7806894158        1.0983375885       -1.8292748948
 Na         2.3115156014        6.2378117280        6.0247389366
 Na        15.0569165829       12.9444666693       11.2976758434
 Na         6.0673207625       13.7287206744        3.3129836679
 Na        14.9068438728       19.0527223714        2.5473692628
 Na         3.6877646816        6.3731410460        0.9999662487
 Na        -0.8757934776       13.7902061179        4.3733048666
 Na         2.4963396503        1.4690163981       14.6965206448
 Na         3.4878183591        0.7337675317        8.8004718466
 Na        13.3325771818       12.6610667980       14.6693620968
 Na        15.0541130239       15.7606083602        6.3277257223
 Na        16.3353686046        2.0744593527        7.9975876586
 Na         9.0839825964       -1.4467585904        0.5686507897
 Na         4.9150165375        1.9736716176        5.3644123575
 Na         7.7766248375        1.6904055648        1.6321126933
 Na         3.2600678127        3.1336462368       17.3592896327
 Na        18.0234051776        3.5636906500       10.9192744702
 Na        12.5143912297       13.6722448616        2.4004055166
 Na        11.0445437172       17.0197037683       -2.4120417021
 Na         6.8267366855        9.4976305627       15.1944349161
 Na         1.5916620652       -0.1275368578       11.0379477112
 Na        17.1035767340       11.0419643227        2.8608207522
 Na        17.2786396623       15.0148107079       14.9194122645
 Na         1.3538184770        5.1928541464       15.7601127893
 Si        -0.5617848423       12.9347955770       12.1512899550
 Si         3.2205257703       18.3463269823       -1.0055266401
 Si         5.4064900473       13.0939543485       -0.0087805021
 Si        14.7791895726        6.6062554434       -1.3815644117
 Si         0.4189912700        8.6561158162        3.2912232756
 Si        11.4988935116       16.8384100509        3.3417765684
 Si         5.4195332543       18.4774845791       11.0095446917
 Si         1.3952017565       11.5086466040       -0.8428187714
 Si         0.7235304311       16.6840521306        4.8080224499
 Si         3.4146977787       13.5462083583       17.1382765061
 Si        15.0809878285       16.3318572579       11.8664032175
 Si        18.0232990066       11.8024100692        9.4257154662
 Si        17.8910864714        0.8674683144        0.7249703621
 Si         8.7284431051       11.6135162660       16.3174225628
 Si         6.5467510786       -0.3153394729        7.9599835164
 Si        15.5528425259       16.3851967814        0.2866612195
 Si         0.2768381818        1.5752758884        8.7365604544
 Si         0.3066624863        0.2101368771       -1.7489782397
 Si        17.9292387914        7.2118410421       15.1273742283
 Si         9.1914864447       -0.3270572636        3.5062307461
 Si        15.2145987074       13.5852417985        3.9178691986
 Si         5.5320928083        7.5723822176       -1.6657570901
 Si         4.3230191137        1.4371678132        0.7181504791
 Si        10.5309268066        2.3749689048       12.9363993869
 Si         4.8404417937        2.0878741344       11.5944496798
 Si         2.9814631648       16.3093703019       11.6131253756
 Si        16.5850384189       16.1958114998        3.0871699038
 Si         1.0487551523        5.7494877020       -0.2836712564
 Si        10.9412893947       13.8815581956       -0.4888908365
 Si         1.8264350033       16.0168154737        0.3649226391
 Si        13.2189673450       12.0947359572       -1.1976073576
 Si         1.0208781513        8.5631987399       -1.0017322249
 Si        17.6480466241        5.6824730665       -1.4520870855
 Si         8.1908034454       14.6281281667        0.6142345064
 Si         0.8899790850       15.3595131349       16.7646552830
 Si        17.6096170378       17.0655991518       17.2031946046
 Si         3.1712752972        0.3628411192        3.3922344294
 Si         6.7367693757       18.4387886528       13.7676802541
 Si        17.3608222752        0.4158140919       10.5186101900
 Si        13.7205760797       -0.8488937908       16.3480668062
 Si         3.2000362190       13.7466676156        2.2234677046
 Si        12.5901147783        4.8851464782       -0.8394642928
 Si         7.4736884983        1.9924980992       13.2884153205
 Si         3.7940043861       16.2033401246        3.8668580377
 Si         8.8835215662        1.0763582952       17.8113722038
 Si         8.1894047489        6.2391548610       -2.1895712467
 Si        12.1021971565       17.3504096598        6.2542973533
 Si        15.9268897890       17.8862482596       14.4630694178
 Si        17.0554488038       -0.9423883056        5.4799843032
 Si         1.3790119761        2.7894682764        4.2724410323
 Si         9.4074464400       16.8279341447       14.3766106929
 Si         4.1731892426       -0.7112645506       15.6128282000
 Si         7.3688467928        3.4847374911       16.0961807981
 Si        14.2634782201        4.4357461204       16.0735870396
 Si         8.9105921669       -1.5651290991        6.4225101699
 Si        18.0243796548       15.8284057624       11.8823365540
 Si        15.0550316295        0.5812316236       -0.5314023540
 Si        -0.1007376342       12.4912745062       16.0463324433
 Si         0.5421683442       18.2037847832        2.3284627161
 Si        15.5010989294        9.1030354112       14.6332425933
 Si        11.5022757626        4.3811886976       15.0929762687
 Si        17.9400007436        2.0677573851        4.6166067579
 Si        18.1413663766        4.5215974761       13.8512352963
 Si        15.6938420064       17.7575275231        9.3662173603
 Si         1.0972872246        5.4989802057       12.1348854564
 Si         1.5208375988       11.3058421593       13.6133031489
 Si         0.0079604921        3.7537843733        6.6495882781
 Si        18.5718098167        1.8810544158       15.3662026806
 Si         1.2381566928        8.1567964233       13.6155664204
 Si         4.1267159388       11.2883846123       15.1101163655
 Si        16.3892357415        2.8602209841       17.1312008345
 Si         0.1132124054       -1.0998310948        7.2404215745
 Si        17.1631344987        3.6354782860        2.1738452435
 Si        14.4225046087       -0.0827662155        7.0910825495
 Si         1.6339859797       17.3539801492       14.2975120439
 Si         4.2226830244       -1.1583510418        6.0779958069
 Si         9.9880523802       14.2703839877       15.9564085399
 Si         6.0972341487       10.6092910622       -1.6033575545
 Si        -0.9139496424       18.7725306456       13.1462840175
 Si         0.5930347919        5.3717563953        2.6326559265
 Si        12.3321967829       16.6242947245        0.4657598349
 Si         2.8884292246        8.5036368057       15.9961846786
 Si        16.7521972304       12.0551634239       14.2536323490
 Si        15.4996795445       13.1695460109        0.6804112312
 Si        10.8436396160        0.2273774050       15.3665270351
 Si         3.4552106287        3.9020682690       13.3737710145
 Si        11.0158882757        6.9031009083       16.6045883886
 Si        13.3702686484        9.1228369388       16.9774135889
 Si         1.1052550925       11.4923291141        2.3684690920
 Si         0.6946889640       16.3642275118        9.5673369702
 Se         8.0734305685        4.8879687710       10.1124141668
 Se         4.6338901686        7.4339484529        3.4634303071
 Se         5.1017825745        4.7272046584        6.5274414596
 Se        10.8608314679        7.1672268792       12.0698001060
 Se         8.1095284618        4.2582235899        2.7101492785
 Se        10.9371672281        1.4102185749        7.9534557422
 Se         3.6925549090       11.1652650308       10.6244176219
 Se         8.8925400390        7.8485462949        4.7165721578
 Se         2.0748409151        7.7261859520        8.5732582486
 Se         8.0793268304       11.0216999921       11.3894303754
 Se        12.0008273788        5.8145226609        3.0579374510
 Se        11.3791160476        5.5789823363        7.6243110971
 Se        13.6386058128        8.4501152278        9.5355936392
 Se         6.2829387043        7.4696241267       13.0249611498
 Se        13.2412808271        1.9162761468        3.7163131333
 Se        14.8297995246        4.0863489754        9.6455778457
 Se         6.2553439681       11.0097203486        4.0309919711
 Se         2.6388320348       11.9629641783        6.5799067065
 Se         6.4549432164       13.0794614093        8.1534179110
 Se         9.7348153326        8.9088712001        1.3219056658
 Se         5.8456634887        8.7667310402        7.7513585217
 Se         9.8419092435        9.8237470776        8.4187109524
 Se         6.5549574341       14.7065167748       12.5943095213
 Se        15.0129146546        8.7758927819        1.9763919711
 Se        12.5004905972        9.5604030639        5.0362870181
 Se        17.2966617892        7.4080819621       10.4777280725
 Se        12.4836787565       11.5229775823       12.1518275074
 Se        15.3194045170        5.7803275008        5.6601317169
 Se         7.9940032269       15.7669812024        6.1804977746
 Se        10.4697841818       14.3555752712        9.5740622782
 Se        10.0583591444       12.6264846940        5.5210997131
 Se        13.8306170439       13.0420637141        8.2443439911
 Se        16.8811050401        9.6977356310        6.2296692509
 Cd         6.2320412532        8.7112235906        5.1170697407
 Cd         6.2175626007        5.3910478363        4.1225180599
 Cd         6.3103946364        3.4049565132        8.5479038022
 Cd         6.1639024526        5.2585785030       11.5633529316
 Cd        11.2146067921        1.6910498275        5.3417592471
 Cd         9.8798847195        2.7363763782        9.9414645097
 Cd         0.1273981919        8.5864364381        9.9774424300
 Cd         9.5088991092       10.0046189609        5.9017033681
 Cd         3.3651417641        9.9940459637        8.3146939484
 Cd         4.9752409282        9.6418606445       12.2186567606
 Cd         9.2481683541        6.3601470060        1.4268625137
 Cd        14.6172122567        3.3280755228        5.2155192121
 Cd        10.9722465584        7.4765269447        9.3270384876
 Cd         6.9063398536       12.3945636790       13.5352836771
 Cd        14.7537738999        6.0625404391        2.6446824960
 Cd        12.9212832418        3.0278456269        8.2739109111
 Cd         5.0912390836       12.3289370175        6.0686252258
 Cd         5.2286143974       13.2873842437       10.8734588311
 Cd         8.9128895010       14.7696445549       11.6075176091
 Cd        10.1462660301        9.9626963677       -0.9736262575
 Cd        11.2185422956        7.0678463591        5.3561160011
 Cd         8.7041230464        8.4983839859       11.9855367541
 Cd        10.7594194757       11.7989287044       10.2905877453
 Cd        12.1566603501        8.5420635409        2.4235318406
 Cd        15.1195831967        8.8383806613        4.5735965952
 Cd        13.0286536354        8.9597762643       12.0577406759
 Cd        16.2665846039        9.1792998914        8.6957610302
 Cd        14.0719460516        6.2404371991        7.9521218104
 Cd         9.1303213586       14.7735115842        3.9390498470
 Cd         9.0243212493       13.5714822086        7.6441649466
 Cd        12.3781551730       13.7873491640        6.0339780842
 Cd         7.1524319034       10.5531962029        8.8761779771
 Cd        15.8725410451       12.2159526384        6.8072456409
