426
 i =     7100, time =    14200.000, E =     -8405.8912883312
  O         7.9810048509       -0.4431817601       17.6946185054
  O        13.8959868203        0.7413147542        0.2572661935
  O         4.5190356391       13.2986360264        1.2385483694
  O         2.3230987186       15.9313943966       12.9329118757
  O        10.8017202832        3.4275849614       16.5858992946
  O        17.9194836873       15.0664112790        2.6087735615
  O        17.6017365057       11.6534237438       12.8583573017
  O        11.3594006821        1.0270678799       13.6895050585
  O        11.3627547088       13.5213808737       14.6543362300
  O        -0.7185431299       -0.3279912476        1.8522608005
  O         2.6078315959        4.4744617733       12.0606155486
  O         8.9672101761       13.1764178206       16.2004629279
  O         4.1195970285       16.2057331933        5.3973702810
  O        13.4633545440       16.8024391224       16.1912943064
  O        18.5210433534        1.1674298184        9.4883672034
  O        16.6504326875       17.4092830048        3.8794373854
  O         5.9455791263       17.7486396292       14.8889942179
  O         4.3911376370        0.5717354132        2.1598483227
  O         1.9526990275        9.5832468959       -0.7549966124
  O         8.1550368185       14.7474000816        2.1410193982
  O        -0.0605662211       17.3716118614        3.6724897532
  O         0.9910629258        6.7079926564        2.5600143966
  O         8.2164003452        2.1458527506       16.8838272046
  O         9.7457075070        0.9994532121        3.5785952022
  O        12.5279278744       15.9878293575        6.8940685924
  O         0.3435009757       14.9696987565        4.9849728173
  O         4.7796204514        0.1757619697       11.0455273780
  O        18.7426592435       17.9486252688       17.1172766408
  O        17.3123812638        3.9160768022       -2.0427142586
  O         6.4662834010        2.0708616000       12.0876860385
  O         3.2853517797        9.6936238322       15.5881078566
  O         6.9396409622       13.5634461961        0.2085136013
  O         1.5580860400        4.6737759098        0.9391506835
  O         4.2591675226        7.3740688368       16.4722257486
  O        15.6456842226       16.2013350071        8.5673886157
  O         1.2041955858       15.9556980130       15.3559348615
  O         4.3057480738        0.3415354230       15.7213179512
  O        15.5620158946       18.5396829929        5.9677582753
  O        14.7074974164        5.5941067775       16.5127253092
  O         1.7596064463        4.2267508639        3.3591653951
  O        14.4001503031        7.8446798040       -1.5469795831
  O        -0.5915439418       14.1105838880       12.7123342827
  O         1.9136422437        4.5835367455       -1.7483007362
  O        -0.0867910818       11.8292011483        2.9879030561
  O         4.3827002801       -0.4997795511       -0.3329430252
  O         0.4517485084        4.6053643969       10.6478340696
  O         9.8932997474        0.3387074641       15.9017832867
  O         4.2259462066       17.0535187492       11.3412779957
  O        16.2290171955       12.5696423771        4.5749529832
  O        12.8652051851       16.8345767401        1.9215030466
  O        17.2626035792       -1.2786830534        9.6223954728
  O        16.2357796507        4.1422671775        1.5361490832
  O         2.9898940954       16.6067657294       -0.2205674820
  O        -0.3871047421        5.4175050421       -0.5126091237
  O         3.8271517743       12.6070742212       15.5486154153
  O        14.2063414006       14.8947675786       11.8096398907
  O        18.0277165827        2.2011318270        1.1093941302
  O         6.2608102559        0.7951463424        8.1199226054
  O         1.9990558469       14.4721583134        1.2671573029
  O        18.7990247253        4.4776584558        2.2533777679
  O        11.9002596356        8.0511579448       16.7568401750
  O         8.2195599431       -0.6221827186        2.0892209350
  O         6.0041759601       17.9933524885        9.3637425206
  O        10.1359585330       10.8824548430       16.7463734594
  O         3.4352151725       -1.3244652814        7.2446482992
  O         0.2566954016       11.2177058228       -2.0449674888
  O        12.3726519822       17.3533378085        4.4569298745
  O         3.0696814931        3.6086919027       14.6144338054
  O         3.2935142459        2.0264505879       -0.0497108084
  O        13.5908335269       13.2808057062        4.2116053741
  O        18.2184796967        2.6839085053        5.9973817502
  O        12.0960106915       14.8490615715        0.2133596830
  O        18.8922555178       -0.3366342315       11.6646851825
  O         5.5307589910       11.4624445900       -0.3488247830
  O         8.6342104148       -1.0653805752        4.7352874078
  O        16.4727675781        0.7403892026       11.1593831551
  O        14.7056865771       -0.4400313415       -1.9465773967
  O         5.7941351198       -1.3007359324        6.3982143550
  O         9.9281700213        1.1054760385       -0.8510906972
  O         3.9621629682       -0.4727956778        4.5212892777
  O        17.2777092022        5.5190695549       14.2892378900
  O        10.5800864879       17.8721189146        6.4834682439
  O         4.7849011161       13.7248055489       -1.4866457148
  O         2.2384617360       16.2694012735        3.6717442121
  O        13.3556995031        3.5943047220       -1.8762758439
  O         4.9501738549        6.7460631314       -0.4284869088
  O         5.8548262371        1.6200629217        0.0660782980
  O         1.3429507082        9.3124448335       12.7549498650
  O         8.1346180290       -1.1249566575        7.5827616199
  O         3.4005768505       14.4773027533       11.0979647487
  O         0.7558608392       16.8076343202        1.1767450654
  O         1.5159607359        8.0018291677       16.6851971697
  O         9.6821181005       13.6010564018        0.1791282131
  O        16.7320905947       10.9151217802        9.6168825256
  O        17.3697654151        1.4911972003       16.0525809725
  O         9.6691441594       15.6974604006       15.5500175788
  O        14.5517641672        1.4019527073        7.1821258520
  O        10.9928042555       17.8133396226       14.5635000224
  O         8.4597529541       17.5389695388       14.0410637165
  O         6.8218555879        6.9547452477       -2.5097600719
  O         3.8260138675       14.1624722789        3.4949317669
  O        10.2780130704       15.9460533487       12.8721507157
  O         1.8753698584       -0.8219189821       -1.5656484855
  O         3.9231643834        2.1847927565       12.5997970589
  O        15.4260517828        3.1944541473       15.8216123371
  O         3.3923501642       17.4172478754       14.6603397951
  O        17.5947261492        0.4185266860        4.8538087731
  O        17.4289264163       -1.0413722850       14.0535549373
  O         8.2239474365       10.8283663588       14.9979515307
  O        14.1161366241        5.4621312514       -0.2683324768
  O         4.8218740092        2.6101042944       10.0333952628
  O         0.3082661015       17.1155649584        8.3512028491
  O        13.0986460895       18.5372519731        6.6120313809
  O        11.6636845756        5.7915809926       -1.2679690540
  O        14.8294591431       -0.7084712737        8.6544709376
  O        16.4922159640       16.7570412706       15.9893021282
  O         8.1193467238       15.9821158581       -0.2056846093
  O         0.1953085465       13.4505658942       15.8585132784
  O         5.2777079784       10.8748596623       16.3838663290
  O         2.0689276938       16.6316376930       10.3365222942
  O         4.9371813119       16.3246936804        2.7597751386
  O         1.4407661579        3.2641948718        5.6852401660
  O         1.9171832514        1.1362072519        9.4903164131
  O         8.2204156047        4.8027120106       16.0486799063
  O        14.8597211583        7.9688224985       13.1268943539
  O         0.9366625888        8.1828057055        4.8189996003
  O         5.9017523362        3.5698427328       16.6158338282
  O        11.1066642705       14.4054563617       17.3208165844
  O        15.6698805055       15.0191613041        3.9973667901
  O        17.6217223988       11.5350543885       15.6793401818
  O         0.0789103083       10.6778791878        8.9723676171
  O        11.1791889067        5.6898078323       15.4380245727
  O         1.0526968032       18.2358849585       13.7799848475
  O        18.4791772132       12.6119678110       10.4948839965
  O         1.6332406286        6.9697544034       -0.3885781015
  O        18.4789863658        6.2039727887       16.4116270313
  O         0.3727096431        2.8887833682        8.0268013037
  O         2.4098392474        7.4757060129       14.4143656683
  O        -0.4215452628        0.7495893637       13.8649876580
  O         0.7337840342       11.8458070742       12.4363047120
  O        14.3939194614       11.7963054180        0.0323588405
  O        10.5435688171       17.8286707062        2.8019913318
  O         1.2241809725        6.8235215056       12.0771909606
  O        -0.1936207028        0.5890427297       -0.5866989271
  O        18.5498736151       15.3427526396       16.8081601303
  O         0.5262518843        0.1300528553        7.4105827276
  O         7.1435403601        0.3943170355       13.9212230684
  O         9.0354292240        2.0235291662       12.6628428014
  O        18.7145628473       16.7126539610       12.7998186941
  O        16.5432392878        6.3006090557       -0.9562104037
  O        14.8942770733       -0.7784030044       14.8166088676
  O        13.9004963093       12.5078805887       16.9602154891
  O        15.7154290780        1.9963584887       -1.2662272851
  O        -0.2907060489        7.6017824136       14.2227008306
  O        17.2878502113        3.5246582115       12.7416759446
  O         1.2974329663       17.3708540335        5.8431241699
  O         2.5041816244       12.0158261340        2.4877802140
  O        12.9820391204       10.1265538246       -1.5733641924
  O        16.7708172494       15.3685253948       11.5222642213
  O         4.3801316834       17.3810113372       17.0565837089
  O        14.2113036184       16.1366333284       -0.3770652248
  O        11.8811325822       12.2573580377       -0.4109899480
  O         7.3770473458        3.0530777811       14.4603053683
  O         6.5773191074       17.9545232276       12.1035373407
  O        17.0683301548       11.9605048579        0.6424314431
  O         2.4829440575       14.4213506768       16.7659196325
  O        15.7921466973       16.2616474965        1.6296642951
  O         1.8854951364       -0.4208317759        2.5194252021
  O         0.2894207113        4.9181733509       13.4671651413
  O        14.9938831612       17.3622180577       10.9784522504
  O        16.5579363616        7.7919115539       15.1667269665
  O         7.6330876299       11.0448043710       17.6044414176
  O        16.0455538685       10.1467107341       14.0296940797
  O        16.8717872825       16.5952550440       -0.7858904462
  O         0.8918199194       11.5530422432        0.5179629882
  O        18.9957297302       15.5811652965       10.2450294353
  O        19.2592420676        5.1873978811        6.6913836684
  O        16.5515860470       -0.0652785821        0.0890871045
  O        18.1757443918       -1.6478788887        6.2886047680
  O        17.9384172625       12.6596691115        7.9445092327
  O         0.7879662929       15.2433615130       -0.9658555884
  O         2.7603228473       12.1048887351       -1.3352875935
  O         5.5084447155       10.6579932628       14.0219169681
  O        11.2115821301       15.1557173062        3.3388494885
  O         5.9114096359        9.0113660563       -1.1020555650
  O         3.0500998200       11.2639993269       13.6882507120
  O        17.0145408896        2.5753771069        3.5212586210
  O        12.5873662537        0.0478199273       15.8542184237
  O        -1.1204385107        8.2992547873        3.0386236440
  O        15.6413895657       12.8249377133       14.3730042446
  O        15.0781191863       13.1128388837        2.1138144004
  O        13.0726210164        3.9505541655       14.9927654795
  O        11.2646568719        2.4318116931       11.4099308607
  O        18.8286487642        3.1506877846       15.0184717949
  O         9.5004930981        7.0062828772       16.9866474433
  O        10.7255018181        3.6049424401       13.7997394153
  O        15.6162153231       16.4831121934       13.4682545579
  O        11.7915399015       17.5563856462       -0.2989623992
  O        -0.4769341644        8.5138444437       -0.7542121607
  O         0.1532040188        1.9806324103        3.7910198380
  O         4.9684359471        4.6689596865       13.0800461496
  O        14.1678406287        9.0291344207       15.5017969320
  O        15.7539764839       14.1246974709       -0.2539914068
  O         0.6580566616        0.9933415179       16.4060200953
  O         1.4042940554       14.6493218983        8.4950198747
  O        12.0338748961        3.7901432574        0.4489916838
  O         0.5923825256       10.9779439882       14.7999739771
  O         8.2054193927        5.3233140135       -0.7512093634
  O         2.8297636836        1.7428374172        3.8328509347
  O         1.4444252706        9.5272092604        2.4620610141
 Na        10.6842140040       11.1549100850       14.0912837318
 Na        18.7047348851       13.4746770943        1.2429891390
 Na        14.3195288873        2.8219376846        1.1400426477
 Na        17.7101656452       10.2859084847       -0.9554290060
 Na        18.5465958730        6.8440042208        5.3296325097
 Na        11.7633240047        0.2666618376        1.0627359790
 Na         5.8555902723        3.8764451384       -0.1069406905
 Na        12.3801685365       14.9422943483       12.9701533208
 Na        -0.5226387975        5.8039509300        8.8849925138
 Na         0.3962858174       13.7783691710        6.7783782869
 Na        12.8155724094       10.5677486419        7.4118590219
 Na         5.2306591240        5.1945325280       15.2566216877
 Na        10.7665403367        3.0768439541        2.2618487780
 Na        14.2354942615        0.7635149440       10.5926209802
 Na        16.2091652759        1.4919454561       13.5142738531
 Na         0.5710630407        9.5378608726        6.6596771050
 Na         9.7720765542        3.5705956753       -0.8862511321
 Na         2.8550222793       13.7785782195       13.6286580305
 Na         7.9192776209        6.3901269711        7.2777547268
 Na        17.1618430015       14.5980495657        8.9238207175
 Na        -3.1063034408        9.8272268039       11.6420086241
 Na         8.8728634974        5.0698723872       13.7543153511
 Na         3.2683573491       15.6316868715        7.4374749882
 Na        15.8001010823        6.0903433381       12.5099552852
 Na         5.7980404907       17.0000467382        0.6381054615
 Na         3.1021506115        9.9525738108        4.3104832829
 Na         2.1964401433        3.4884313237        9.9524019966
 Na         1.2126644194        2.6252767117       -0.0105566912
 Na        17.8749601722        7.3626831139        0.8846455294
 Na         1.6021353370       12.6585606503        9.6691847479
 Na         6.5984564859        9.6187034295        1.4161021448
 Na        14.1215722736       14.8062943838       16.9125754623
 Na        13.3292676192       15.5434633997        8.9563373125
 Na         7.6062963947       16.8489163301       17.0194677281
 Na         6.8863404348       -2.1664976541        3.4503587812
 Na        11.8751343925        1.4718146727       -1.7407526117
 Na         6.0082343642        0.9510447917       -2.0283220324
 Na         2.7255728308        6.3346195057        5.5845231938
 Na        15.3289741955       12.9223881488       10.9755076354
 Na         6.2376772248       14.0362107789        2.9550165901
 Na        14.7958364207       18.6111094749        2.6419280326
 Na         3.3622529624        7.1268374668        0.9164335009
 Na        -1.0156450544       13.4846129197        4.1298842359
 Na         2.6515958624        1.1470276106       14.3732963831
 Na         3.9824804921        0.4806095476        8.7468098304
 Na        13.4609955575       12.3625989400       14.6738202289
 Na        14.9128837086       15.8762286836        6.3311485245
 Na        16.4074831713        2.5362649178        7.5271856241
 Na         9.4835156078       -1.6281481704        0.4555138983
 Na         5.4033546096        1.7720873616        4.7344206724
 Na         7.6849420971        0.8329405297        0.6794174358
 Na         3.5997047287        2.4708469217       16.9033329854
 Na        17.9397301692        3.2518171978       10.5791022150
 Na        12.4354690312       13.4600029667        2.2188447826
 Na        11.2859046434       16.8046072098       -2.3625787603
 Na         6.8287456393        9.2120448997       15.1748532926
 Na         1.6962346225       -0.4890748505       11.0424057055
 Na        17.2252237254       10.4592641794        3.2022502762
 Na        17.0322284105       14.4224531143       15.1329592386
 Na         1.5558162512        4.9991192498       15.4744986390
 Si        -0.6557300997       12.6032242927       12.1056835118
 Si         3.3695472202       17.8233887194       -1.1632180564
 Si         5.4232708572       13.0907177600       -0.1178186850
 Si        15.0079328901        6.3100164067       -1.3818845422
 Si         0.4496144084        8.2716352883        3.2386678883
 Si        11.7295719420       16.6528376876        3.1190393041
 Si         5.4501650415       18.0543907555       10.8769495962
 Si         1.5045777479       11.1271713478       -0.9608250330
 Si         0.8921259207       16.4133811242        4.5857388761
 Si         3.4269387284       13.1529507297       17.0376876909
 Si        15.2934032079       16.0501714919       11.9589780135
 Si        18.1701454134       11.6071593503        9.1895405828
 Si        18.0070786146        0.5907563575        0.6374427184
 Si         8.7740429725       11.4839935535       16.3682371605
 Si         6.5533266082       -0.7409328471        7.8206593592
 Si        15.7132358740       15.7759060153        0.0781641317
 Si         0.5567476966        1.2648431574        8.6393181553
 Si         0.3582723124       -0.1850391614       -1.8926214543
 Si        17.8983411818        6.8986279462       15.0376598295
 Si         9.2832400804       -0.4949130568        3.3002807518
 Si        15.1156615929       13.4237052066        3.7840998089
 Si         5.4253999555        7.4865028307       -1.6507165064
 Si         4.4372066289        1.0230910881        0.4552762744
 Si        10.7071611817        2.2903122488       12.8539914161
 Si         4.9616382841        1.7775961458       11.3733379815
 Si         3.0474337757       15.9393904106       11.4238928254
 Si        16.6783903354       15.8911275246        3.0083555872
 Si         1.3462795974        5.3938080699       -0.5646466269
 Si        11.1045822736       13.7374882278       -0.6005919553
 Si         1.6733844177       15.7966664739        0.2606409203
 Si        13.3441561835       11.7664423866       -1.1645055746
 Si         1.0298089573        8.2615962180       -1.1759904987
 Si        17.8455660423        5.4290480509       -1.6463844626
 Si         8.3057821766       14.5696978550        0.5589284910
 Si         0.7943970615       14.8642784559       16.6025737261
 Si        17.6732345588       16.6552037099       17.1638214818
 Si         3.1548373628        0.2517698942        3.2260482557
 Si         6.9732146068       18.2067643284       13.6423505632
 Si        17.7100816562        0.0781691110       10.5610920049
 Si        13.8691019700       -1.0653001061       16.1526714602
 Si         3.1105626689       13.4898746153        2.1141023957
 Si        12.6914891974        4.5703273498       -0.7531886506
 Si         7.5195475141        1.8927068976       13.2986333794
 Si         3.8110661669       15.8470725040        3.7617880519
 Si         9.0104718391        0.7271391213       17.3173126539
 Si         8.1499557562        6.0020226095       -2.1747242263
 Si        12.1145919975       17.2889191156        6.0711615806
 Si        16.1081918055       17.5720775020       14.5679544510
 Si        16.9888840943       -1.0738168691        5.2613505031
 Si         1.5785998570        2.7648139885        4.1702270610
 Si         9.8096994497       16.7263823752       14.2296669030
 Si         4.5033216860       -1.2254033500       15.5792437124
 Si         7.3846855478        3.3422808904       16.1283532272
 Si        14.1351711956        4.0900332137       16.2116786098
 Si         8.9907061755       -1.6858280089        6.2400500794
 Si        18.3801226517       15.5555331603       11.7981232784
 Si        15.1280109756        0.5310707280       -0.6717045037
 Si        -0.1640847569       11.8763527226       15.8702733754
 Si         0.5517890778       17.9864884746        2.2806446470
 Si        15.3758839062        8.6952166224       14.4588878567
 Si        11.3853021693        4.0246972486       15.2659016256
 Si        18.0966245276        1.9091402463        4.5877774206
 Si        18.2056661434        4.2489765558       13.7685379589
 Si        15.7093781457       17.5301870092        9.4632417750
 Si         1.1370164809        5.1731119848       12.0474334323
 Si         1.5466903456       10.8420148577       13.4543192337
 Si         0.1725474205        3.5985139035        6.6208533590
 Si        18.8255171192        1.5394948333       15.2921080179
 Si         1.1715878749        7.7578089045       13.4010882220
 Si         4.2178416108       10.9949684948       15.0304011951
 Si        16.4881365879        2.5949703328       16.8399148174
 Si         0.3013202280       -1.4487402937        6.9863996250
 Si        17.5115491563        3.4229496392        2.1602001565
 Si        14.5088958901       -0.1597953869        7.1102440053
 Si         1.9089838647       16.8703243060       14.2322662722
 Si         4.2743712645       -1.4736834770        5.9100267587
 Si        10.3042697045       14.0745167352       15.7744877230
 Si         6.0829551911       10.5866497550       -1.6210674956
 Si        -0.5334231796       18.3622611622       13.1804497643
 Si         0.8796931775        5.1125820181        2.3494147577
 Si        12.7173176226       16.3934288100        0.3239094157
 Si         2.9497683334        8.1590466364       15.8982803635
 Si        16.6777222456       11.6316610883       14.3004135090
 Si        15.6652872486       12.6577310766        0.6407827320
 Si        11.1793789051        0.0226959155       14.9656177784
 Si         3.6460177771        3.7927843482       13.1662789544
 Si        11.0640551249        6.5654563057       16.7656891830
 Si        13.3924078284        8.8266846556       16.9136571406
 Si         1.1102821522       11.2093421076        2.1373038993
 Si         0.9247905549       15.9364594059        9.2667153974
 Se         7.9306709425        4.6557984169        9.4790221643
 Se         4.8377871200        7.5318208360        3.4438953637
 Se         5.2071523461        4.3968656484        6.3101998679
 Se        10.9613862241        7.0197284880       11.8002208459
 Se         7.7064934419        3.9107884189        2.3715603046
 Se        11.2333700623        1.4856882177        8.0507737683
 Se         3.8303835285       10.9506554451       10.3264313555
 Se         8.9499398875        7.5543331389        4.7454533474
 Se         2.0215662992        7.5262254632        8.3969927109
 Se         8.4450135674       11.0733920311       11.4911674878
 Se        12.2317489090        5.5458576916        3.0396116296
 Se        11.3332829461        5.2903031560        7.4903945244
 Se        13.7734048399        8.5111347450        8.9584189046
 Se         6.7588571691        7.3808087800       12.9007063266
 Se        13.0591901035        1.7618836380        3.8701899578
 Se        15.1542622621        3.9718311761        9.6574516668
 Se         7.0878834127       11.4287464950        4.1689308609
 Se         3.0796669306       11.5517898097        6.7231133781
 Se         6.5525025189       13.0237280233        8.3046709040
 Se         9.7541639745        8.5892078369        1.1725758490
 Se         6.3124054561        8.4780459953        7.8775599535
 Se        10.2051050384        9.6616904716        8.4733710491
 Se         6.6915725615       14.5089158372       12.6305395206
 Se        14.9333018459        8.4787398724        1.8926018859
 Se        12.5855255976        9.2781104496        4.7644782253
 Se        17.4975518411        7.5384847108       10.6407356225
 Se        12.8712848769       11.1711000811       12.0797820649
 Se        15.4129992914        5.7987533512        5.8598237661
 Se         8.1922612241       15.5704527300        5.9423095079
 Se        10.7530587000       14.1373170878        9.7612616579
 Se        10.4190805515       12.5140818100        5.5131238126
 Se        14.2031183852       13.0808098996        8.0746960583
 Se        16.9495302794        9.2767560715        6.0616414757
 Cd         6.3814348842        8.8999918704        5.1789379427
 Cd         6.4750529190        5.4501871837        4.1817206307
 Cd         6.1005585554        2.9878516394        8.1826221208
 Cd         6.1943770094        5.0180466653       11.3033241058
 Cd        10.8815527929        1.5342298369        5.5023100165
 Cd         9.7325546789        2.8006437617        9.8418355089
 Cd         0.3806415042        8.7811602363       10.0068982097
 Cd         9.9821807870        9.8429360701        5.7369334911
 Cd         3.7748913626        9.3874240473        8.1159866977
 Cd         5.2085330545        9.4279989789       12.0502895656
 Cd         8.6300091108        6.1690776910        1.4851429315
 Cd        13.9096806699        4.0620895495        4.6956284767
 Cd        10.8622977622        7.1344990696        9.1766512670
 Cd         7.1166897846       12.1568053029       13.5781527938
 Cd        15.0852159903        5.9179749141        2.2809819577
 Cd        13.1945308491        3.1451978725        8.3168515334
 Cd         5.4000278294       12.3116333924        5.9614546481
 Cd         5.3182778198       13.1567936651       10.7468164162
 Cd         9.0573118852       14.6732762827       11.5743904820
 Cd        10.4645482508        9.4516056877       -1.1534262314
 Cd        11.6529829203        6.7714662890        5.3614475221
 Cd         8.7748232855        8.4785962729       11.8088162320
 Cd        11.1018566175       11.5786685124       10.2679634129
 Cd        12.1110885336        8.2738588085        2.2637922271
 Cd        14.9665823016        8.3104485604        4.6757399669
 Cd        13.1729486032        8.5099357941       11.7168413770
 Cd        16.4129900041        8.8605489590        8.6078479634
 Cd        14.3314581486        6.1319925234        8.3297716712
 Cd         9.3329592629       14.2963332181        3.8954647732
 Cd         9.2314291375       13.4227084636        7.5824382641
 Cd        12.6467444495       13.8259517706        6.1324132386
 Cd         7.3705357350       10.5357819380        9.0299084074
 Cd        16.1063621145       11.9400096118        6.7278283620
