426
 i =    10000, time =    20000.000, E =     -8405.8430496592
  O         7.7213650620       -0.0306348153       17.9928241771
  O        14.0617589431        1.0784699054        0.5770768180
  O         4.3191804742       13.7140109580        1.2779118814
  O         2.3740090898       16.2715651282       13.1807731763
  O        10.8821178403        3.4260452752       16.5252263583
  O        17.7907729266       15.4333060054        2.5160939576
  O        17.4116976111       12.1596531024       13.0370326644
  O        11.0406248431        1.2574992949       14.2147454623
  O        11.0257353878       13.6514779390       15.0592118215
  O        -0.5974871279        0.1566608651        1.9034357779
  O         2.6609457171        4.7864085003       12.1702312871
  O         8.7430255431       13.2159060123       16.4595869857
  O         4.1083202164       16.4901217877        5.5527881220
  O        13.5199175507       17.2533812339       16.4393248371
  O        18.1680327283        1.2812591515        9.5734542236
  O        16.5788436134       17.6501702943        4.0169593552
  O         5.5470766187       18.0163641052       14.8893418152
  O         4.1687289033        0.9463177147        2.5407512656
  O         1.8857476162        9.8741673616       -0.6590800698
  O         7.7900763760       15.1296702549        2.3715804790
  O        -0.1465421765       17.6753150627        3.7464254112
  O         1.0650149652        6.9406205249        2.8301579169
  O         8.1672784650        2.5254759934       17.1630626072
  O         9.7970433538        1.1115252988        3.9402212365
  O        12.7498539416       15.7933694030        7.0011864065
  O         0.2520226081       15.3270458257        5.2708667073
  O         4.5722793951        0.3500824566       11.2842174351
  O        18.4552367538       18.5108230759       17.4117039430
  O        17.1922164880        4.2932786071       -2.0034636155
  O         6.3408816421        2.1979012371       12.2493543404
  O         3.1792996254        9.9657892843       15.8874279141
  O         6.7044606546       13.9494063704        0.2406523988
  O         1.3949633693        4.9706385516        1.1599636478
  O         4.1830059254        7.7149355676       16.8409311394
  O        15.5496501804       16.3389437570        8.6867958454
  O         1.2963829670       16.3835663259       15.6304043780
  O         4.2195823302        0.8980176283       15.9552213193
  O        15.3122167980       18.5876332377        6.0822096404
  O        14.5025712919        5.8843963685       16.6119598218
  O         1.5963570122        4.4091223033        3.8369673261
  O        14.2366148012        8.1162493422       -1.3046908832
  O        -0.7289375841       14.6340002520       12.7470338805
  O         1.6771042004        4.7279300118       -1.4210314322
  O        -0.0021618854       11.8865640651        3.3907780908
  O         4.0457113783       -0.2647417745        0.1420842063
  O         0.6128970542        5.0350671956       10.5187472335
  O         9.8192325473        0.3821625395       16.6078739317
  O         4.2496878080       17.0551709409       11.2883219783
  O        16.5288565263       12.8140305303        4.7400345997
  O        12.8488909461       16.7558298715        2.1642670349
  O        16.9655687879       -1.0360099348        9.9681341575
  O        16.0670276641        4.6992857538        1.8954754962
  O         2.9135568442       16.8468179808       -0.2554322616
  O        -0.6241525831        5.5970432419       -0.3670570643
  O         3.5052576968       12.8353049240       15.7755409291
  O        13.7884794354       15.2305280180       11.8455508131
  O        17.9423256654        2.7030701924        1.2306789671
  O         6.1446592161        1.1013733672        7.9064393370
  O         1.9767967490       15.0358283804        1.4663164712
  O        18.6307116673        4.9222275477        2.7898811472
  O        11.8873195164        8.1866985285       16.6928241309
  O         8.1936136699       -0.4951550155        2.3958834593
  O         6.0873703725       18.2761151439        9.4765785111
  O         9.9960935833       10.8725024719       17.0272431213
  O         3.1783210225       -1.0585310298        7.3958478436
  O        -0.0955586048       11.3130544513       -1.7603289343
  O        12.4532103829       17.1201450701        4.7331783925
  O         2.7580639926        3.7931884200       14.7149371689
  O         3.0501080619        2.2671918299        0.2623513622
  O        13.7831746468       13.1359593573        4.6295637179
  O        17.8496023502        3.0584268779        6.1239243875
  O        11.9906774051       14.9525274553        0.4946260651
  O        18.6031460445       -0.0321136947       11.8290261743
  O         5.3796341911       11.7506241941       -0.1141512387
  O         8.6434223583       -0.9445087883        4.9381867698
  O        16.0853281916        1.0997865388       11.3585705994
  O        14.5569140170        0.0666850025       -1.7706825180
  O         5.7284515377       -1.0959984676        6.6793131024
  O         9.8752463999        1.4953623221       -0.3503223137
  O         3.9387232350       -0.3061295578        4.8179049213
  O        17.3057893878        5.8053905575       14.4237422236
  O        10.4309149267       17.3303385550        6.5375594343
  O         4.5904440330       14.0385079837       -1.4005101722
  O         2.1828672707       16.8773287313        3.8725487994
  O        13.3131490724        3.8468075791       -1.6721426426
  O         5.1654861218        6.5937090755       -0.2816205800
  O         5.5694882129        1.7888595306        0.3646459201
  O         1.0198179085        9.6701012552       13.1647387235
  O         8.1135304411       -0.9578286803        7.6964302078
  O         3.1350512751       14.6682882703       11.2173380535
  O         0.8780074879       17.5021341769        1.2278445057
  O         1.4209622784        8.2399397137       16.9150571585
  O         9.4036089529       14.0387810959        0.4510596824
  O        16.8798580713       10.9974775165       10.1083130344
  O        17.3627480981        1.8815004493       16.3443522498
  O         9.4553731509       15.6967451350       15.7834840219
  O        14.3234459987        1.6013552513        7.1177824624
  O        10.6192660081       17.9795872971       14.9355716579
  O         8.0330714435       17.4333603549       14.5716625507
  O         6.6998781714        7.3344138353       -2.2950898689
  O         3.2717362788       14.5781039508        3.5883049983
  O        10.0274297808       16.1100888583       13.1882205217
  O         1.6759403440       -0.4747267066       -1.3798161724
  O         3.6825384515        2.3852365891       12.5925673856
  O        15.2472827853        3.2947621518       15.9221809619
  O         2.9534676083       18.2938172448       14.7572396972
  O        17.1783750942        0.7283494286        4.8183032674
  O        17.0816551085       -0.4175859969       14.2009343056
  O         8.2118184719       11.0509959707       15.1105895813
  O        13.8351670047        5.7986022864       -0.1177842363
  O         4.6834346699        2.8867299506       10.2421395770
  O         0.1373355577       17.6378852714        8.6162015807
  O        12.8024487806       18.6210153416        6.8691231925
  O        11.5656596390        5.8230755688       -1.4944933641
  O        14.6870384382       -0.5691867979        8.6430878713
  O        16.4313201569       17.0621017761       15.9385244051
  O         7.8015621899       16.2920467907       -0.1272395054
  O        -0.0347109089       13.8346749728       16.3275383545
  O         5.0948046724       11.2981681029       16.7782281529
  O         1.6835214526       16.9484936258       10.8067092826
  O         4.7873079309       16.6282025999        2.9498463789
  O         1.1541776458        3.4510967993        6.0400236191
  O         1.5523803194        1.4462813184        9.4932071970
  O         7.9721523327        5.1060727024       16.0971524032
  O        14.7575920481        8.3293262340       13.4678265028
  O         1.0906381504        8.6136324535        4.9588519891
  O         5.8252482483        3.6977918154       16.8127639220
  O        10.7738353681       14.5016431991       17.6123748188
  O        15.5063358676       15.2791455052        4.1221469860
  O        17.4051601250       12.0969771290       15.8571036482
  O         0.0727105055       11.0794080511        9.4331678608
  O        10.9853511809        5.9358563918       15.3903946894
  O         0.6847080716       18.3607713868       14.0030513711
  O        18.3492739655       13.0853306065       10.7006867545
  O         1.4725587235        7.2010211395       -0.1849179199
  O        18.2211838540        6.6124556945       16.6599562126
  O        -0.1885270118        3.2396147564        8.3054074137
  O         2.4070715639        7.7416002996       14.6058608562
  O        -0.5416448368        1.1254888291       14.0893219977
  O         0.6650905001       12.2864515017       12.5861316440
  O        14.1879483190       12.2151648625        0.1263772868
  O        10.5886769562       17.9159006060        3.0616204901
  O         1.2329120434        7.1675252462       12.3408586849
  O        -0.3323186997        1.2070493306       -0.4405807603
  O        18.4817340976       15.9913039434       16.6859362553
  O         0.1633619416        0.5937606613        7.4129679408
  O         7.1543764061        0.4954330606       14.1843919250
  O         8.8345002909        2.1059611497       12.8378491935
  O        18.2571232904       17.0904114271       13.0873663577
  O        16.2944474419        6.5336157773       -0.8685900554
  O        14.7610536928       -0.1650908952       14.9947091447
  O        13.3997414042       12.9843688391       17.1337376821
  O        15.6287465315        2.5083366047       -0.9675742719
  O        -0.3017041665        7.8345051616       14.4909290573
  O        17.0755055585        3.7543487640       12.9925538729
  O         1.0484769713       17.7469427917        6.1008863560
  O         2.3702458797       12.4219947388        2.4191625100
  O        12.8309958219       10.3926580107       -1.2542268375
  O        16.3870787867       15.7081954888       11.5652161828
  O         4.1122203533       17.8792997365       17.1524400563
  O        14.1176016984       16.5177913393       -0.1687152521
  O        11.5716873437       12.5156357847       -0.1525740261
  O         7.4107675547        3.0372045042       14.6986561658
  O         6.4886733995       18.1460205416       12.2998363428
  O        16.8532955954       12.1514476135        0.5847881830
  O         2.2363652377       14.7602500742       17.0971316479
  O        15.8795182979       16.6838186081        1.6480048690
  O         1.8291727242       -0.0445879664        2.9567205917
  O         0.1444774816        5.0393479274       13.2084741618
  O        14.6983464881       17.6676951426       11.0932476956
  O        16.5660173265        8.2403746052       15.4348277123
  O         7.4389789084       11.1570510623       17.7756331558
  O        15.9348196882       10.5873289998       14.2658275462
  O        16.7775015502       16.7530781802       -0.7918693476
  O         0.6195199547       11.6161066647        0.8251659951
  O        18.7347523554       16.1176640110       10.4992640903
  O        18.8972919336        5.5051771399        6.7645857314
  O        16.6194282020        0.4913884923        0.2028061717
  O        17.8857321138       -1.2799408459        6.5179840333
  O        17.8094711729       12.7334712960        8.2345479833
  O         0.6219302833       15.6990972487       -0.8256097330
  O         2.4958187452       12.3676707866       -1.1257533062
  O         5.2947616284       10.9785921239       14.3201086399
  O        11.0888850111       15.2228786224        3.3513827373
  O         5.6103141226        9.2230555201       -0.8798904013
  O         2.8282462734       11.4417099293       13.8926387262
  O        16.7505721033        2.9546238284        3.6606888178
  O        12.3537275168        0.2778656491       16.1427368244
  O        -0.8875465716        8.4356855386        3.1054093674
  O        15.4947785463       13.2750057058       14.4094779693
  O        15.0358502578       13.1650638850        2.3922164680
  O        12.9332686654        4.2002262068       15.0345524410
  O        11.2993306101        2.3478472830       11.7121739988
  O        18.9008483844        3.5028367654       15.1086255474
  O         9.3236516660        7.2961988319       16.9502679472
  O        10.4964016327        3.8537645247       13.9108693697
  O        15.1959467239       16.9693861894       13.5850063434
  O        11.4622580925       17.4750583911       -0.1133122495
  O        -0.6171376621        8.8134991336       -0.6995697030
  O         0.0462833246        2.1886926724        3.9597986427
  O         4.9465816265        4.6154829637       13.4649889484
  O        14.1135875792        9.6254406234       15.8775453398
  O        15.7989403179       14.3920435986        0.0883768210
  O         0.5400926853        1.2691841430       16.5143077423
  O         1.2277532648       15.2387506747        8.6626699886
  O        11.7985203976        4.0255639586        0.4733484172
  O         0.4025679689       11.4484398351       15.0166460764
  O         8.1730832334        5.6047372873       -0.5941775009
  O         2.5361461670        1.8488533721        4.5468209967
  O         1.5096290320        9.7690796167        2.6045146300
 Na        10.2399295827       11.5894546378       14.0638082603
 Na        18.2315092412       14.1345812715        0.7230627074
 Na        13.9469641046        3.4060517671        1.5494151740
 Na        17.1355173568       10.3316660162       -0.8691622796
 Na        18.1505952536        7.3402159010        5.2692839521
 Na        11.6477054479        0.4016082720        0.8039147198
 Na         5.6624088950        4.1734929726       -0.0594849026
 Na        11.9177501695       14.7714469340       13.1129885838
 Na        -0.1699021986        6.2844397520        8.8172249887
 Na         0.1016427348       13.6527217457        7.0428296605
 Na        13.1151203289       10.2469939238        8.0646379621
 Na         4.9497244864        5.4577187432       15.5189018229
 Na        10.4271244154        3.5725044651        3.2256039193
 Na        13.8452007086        0.5517721643       11.6179871047
 Na        16.2286887145        1.7045185068       13.6617586929
 Na         0.3101874605       10.5121701687        5.9705159598
 Na         9.7905626543        3.9053816281       -0.8728350819
 Na         3.0323999051       13.8709050229       13.5348989704
 Na         7.9599566816        6.6174411758        7.4559088343
 Na        17.2870308275       14.8858460300        9.0754644343
 Na        -2.4739321949       10.1193986908       12.1191532092
 Na         8.8973588687        5.6370491963       13.9060182279
 Na         3.0668309707       15.8917295745        7.5329702102
 Na        15.5470929214        6.2860661164       12.4154447058
 Na         5.5791468746       17.5506224979        0.9140667694
 Na         2.9895941174       10.0044917245        4.5790340952
 Na         2.5506013199        3.7478516334       10.0056636182
 Na         0.9895431653        2.9422176165       -0.0327562416
 Na        17.9221818406        7.5126623095        1.2228170959
 Na         1.6836612435       13.0426346723       10.1483360319
 Na         6.2416301442        9.6304732696        1.9847152038
 Na        13.7963455368       15.1931568211       16.9267123975
 Na        13.3904116886       15.4327252423        9.4696044144
 Na         7.2050777101       17.0483831272       17.3000903636
 Na         6.7924166618       -1.8099729331        3.6975725402
 Na        12.0894013299        1.8884267109       -1.6688383934
 Na         5.8605914324        1.2186360576       -1.6894701592
 Na         2.1330233588        6.7421546165        5.9815618746
 Na        15.0806741155       13.4010421643       11.6371475213
 Na         5.8504605408       14.4829320445        3.2234728695
 Na        15.2273452362       18.7769348406        2.0139948008
 Na         3.5052644011        6.8827298900        1.3265010768
 Na        -0.8288789966       13.8093493896        4.0714704604
 Na         2.3523962304        1.5379591610       14.6479059822
 Na         3.5452631665        0.9591247427        8.6077892965
 Na        13.3289350956       12.4042110700       15.0556856022
 Na        15.1899018044       15.8646630145        6.5074405823
 Na        16.3464662069        2.2835895954        7.9644205448
 Na         9.2800566445       -1.4117959926        0.5309940830
 Na         6.1244064121        1.6514404707        5.5472875956
 Na         7.7824740382        1.3764374120        1.1946191638
 Na         3.3176290207        3.1750500334       17.3734595128
 Na        17.9683358146        3.6836315420       10.7501601450
 Na        12.7049652948       13.7921362923        2.6419703681
 Na        11.4135211794       16.8956649248       -2.2690898994
 Na         6.6436841727        9.3995362046       15.5722292205
 Na         1.4725087233       -0.1100106529       11.0840100686
 Na        17.3684838523       10.8640292948        2.7000217498
 Na        17.1384324203       15.0277915489       14.8658724129
 Na         1.1225311839        5.0977155321       15.5803782071
 Si        -0.7468984012       13.0592228089       12.2392832680
 Si         3.1595168599       18.2885619523       -0.9503561678
 Si         5.2309440232       13.3457780443       -0.0310370756
 Si        14.6808598202        6.5410413776       -1.2580026068
 Si         0.6795707742        8.5695753681        3.4584710035
 Si        11.7253441039       16.7153351166        3.3621475370
 Si         5.3898795846       18.2735775661       11.0851142837
 Si         1.2657432010       11.3539414550       -0.6680782317
 Si         0.8015819404       16.7553581507        4.8127806717
 Si         3.2250108245       13.4902939051       17.2455972922
 Si        14.9288783210       16.3069549209       12.1142406235
 Si        18.0496493817       11.8037083397        9.4834816518
 Si        18.0402300508        1.0875945351        0.8133835361
 Si         8.6015123224       11.5810459469       16.6211098245
 Si         6.5029987849       -0.4748666213        8.0158561344
 Si        15.6079452174       16.0296242249        0.1673430123
 Si         0.1666317035        1.5560070323        8.6678149971
 Si         0.2978677456        0.1995266336       -1.6730897298
 Si        17.8139705026        7.1953812794       15.2057366427
 Si         9.3181027508       -0.3400538196        3.5468728122
 Si        15.2273483919       13.4481797179        4.0596598812
 Si         5.3334370207        7.6325512916       -1.4227871964
 Si         4.1715832715        1.3282195682        0.9130962333
 Si        10.4335117352        2.4088100707       13.1032435780
 Si         4.8952627030        1.9202119162       11.5763406660
 Si         2.8973059581       16.2025132163       11.6489730752
 Si        16.6270788923       16.2140194606        3.1513697357
 Si         1.0564713377        5.6529918710       -0.2993979387
 Si        10.8680440922       13.9891401911       -0.1882216271
 Si         1.5589322340       16.1609173281        0.4034254861
 Si        13.0693657398       12.0776361744       -1.0251698265
 Si         0.9075831842        8.5740143716       -0.9523930610
 Si        17.6036390205        5.7349034982       -1.5147537042
 Si         7.9961268419       14.9413801714        0.7575005129
 Si         0.6369676956       15.3386981562       16.8655974703
 Si        17.5203773345       17.1239601371       17.2301285450
 Si         3.1196484336        0.5539106738        3.6755748851
 Si         6.8227354626       18.3454874890       13.8597267277
 Si        17.3913053111        0.3781186458       10.7942741800
 Si        13.7877159697       -0.5829545860       16.3189796745
 Si         2.9609873208       13.8914058676        2.1661456953
 Si        12.5637240279        4.8282227101       -0.6112811586
 Si         7.3384097017        1.9680356921       13.5228248207
 Si         3.6343656915       16.1976993941        3.9077092061
 Si         8.8520088220        1.0517518194       17.7701844810
 Si         7.9621458237        6.2961746079       -2.0456195143
 Si        12.0911307381       17.2001516377        6.3380282991
 Si        15.8738795110       17.9810423194       14.6597628863
 Si        16.7673268354       -0.8338318054        5.3398973831
 Si         1.3727297013        2.9624745197        4.5149139342
 Si         9.5310675337       16.7703570119       14.5260848334
 Si         4.2923843388       -0.6919771082       15.6649128010
 Si         7.2842994165        3.5603570206       16.2459105080
 Si        13.9646410220        4.3117724044       16.2667159127
 Si         8.7580992237       -1.7607839100        6.3820146083
 Si        18.0253980411       15.9787419418       12.0002792888
 Si        15.1723785712        0.9491988814       -0.4837755059
 Si        -0.3885122117       12.2618841028       16.2550487096
 Si         0.5479673023       18.4499974154        2.5181338652
 Si        15.3071274146        9.0999534620       14.7447695428
 Si        11.2882276805        4.2764538569       15.2985377375
 Si        17.9005635319        2.1960771611        4.7097772118
 Si        18.1219941057        4.4419254952       13.9064901348
 Si        15.5131123932       17.7128897645        9.5289039538
 Si         1.1317341664        5.4761651481       11.9392610302
 Si         1.2782056536       11.1955233866       13.6801427886
 Si        -0.2841566119        3.9596390448        6.7761942839
 Si        18.7478728020        1.9209141016       15.4970215894
 Si         1.1135985521        8.0560522505       13.6941156222
 Si         4.0326596343       11.3010997857       15.3274555313
 Si        16.3683876365        2.9713184891       17.0147684869
 Si        -0.0244089321       -1.0480239384        7.1524575395
 Si        17.3799865389        3.8493410937        2.3224011824
 Si        14.2647970269       -0.0204066508        7.1766669981
 Si         1.7287234277       17.2538702303       14.4473613474
 Si         4.1290741506       -1.2944434513        6.1419083436
 Si        10.0413678948       14.1441190544       16.1948294908
 Si         5.8513552388       10.8076658469       -1.3303714140
 Si        -0.7877877169       18.8431259639       13.3958740833
 Si         0.8270057874        5.3203231906        2.6788909053
 Si        12.5605042510       16.5182147330        0.5182553487
 Si         2.8436851695        8.4565937023       16.1536274475
 Si        16.5659010488       12.1521421147       14.5149024885
 Si        15.5043011544       12.8985470486        0.8852259534
 Si        10.8769790407        0.1515622043       15.3894457043
 Si         3.5074631265        3.9742858526       13.3711707856
 Si        10.9430418257        6.8567173517       16.7665047780
 Si        13.2295046680        9.0807111118       17.1897809936
 Si         1.1191048532       11.3975742200        2.3518946024
 Si         0.6787461905       16.4211261998        9.5956580892
 Se         7.9130856239        4.7231083087        9.9675324650
 Se         4.4480065992        7.6907931848        3.9155679333
 Se         4.8614064329        4.2215455229        6.3025852600
 Se        10.7966781531        7.2885516095       12.1716918486
 Se         7.6849511859        4.5478331080        2.6340103801
 Se        10.7224580097        1.1389881601        8.3733126270
 Se         3.6593309919       11.2221430176       10.7566373671
 Se         8.8663831021        7.9155389673        4.8785639987
 Se         2.2338162044        7.6845235787        8.8913866450
 Se         8.2089935148       11.2910098183       11.6158119285
 Se        12.1717116820        5.8812783679        3.2334881495
 Se        11.2231741016        5.3547349669        7.6999198434
 Se        13.8386068154        7.9802688274        9.7718090842
 Se         6.5000247489        7.7838484664       13.0368539268
 Se        13.1289600054        1.6928673039        3.8964553550
 Se        14.7896433861        3.8755771718        9.7801091454
 Se         6.2817681660       11.4208742578        4.2975631156
 Se         2.6377776306       11.9289835309        6.8816681676
 Se         6.3638753434       13.2852364558        8.4827243725
 Se         9.4887506466        8.9101340245        1.6084373241
 Se         5.8547056712        8.7464673919        8.0596930723
 Se         9.9437269819       10.0312508220        8.6012917916
 Se         6.2234977371       14.6364809443       12.7775417387
 Se        14.9682586468        8.8388535308        2.2690800308
 Se        12.6400978772        9.4937127423        5.2586975060
 Se        17.7422821813        7.5329104810       10.8023895839
 Se        12.6382853306       11.4535340263       12.2785142046
 Se        15.4278851830        5.7146436863        5.7416806109
 Se         7.5593492122       15.7383749306        6.0424453072
 Se        10.3187121397       14.4574415497        9.9614359089
 Se        10.1538863759       12.8632931191        5.6180831675
 Se        14.2339295549       12.8048199626        8.4037659990
 Se        16.9753042709        9.6192208855        6.5905254311
 Cd         6.5093259478        9.0934090479        5.3547506165
 Cd         6.0465500451        5.6752670548        4.4056963963
 Cd         6.0763564690        3.3505987104        8.5717397798
 Cd         6.0257270361        5.4077984257       11.7271758013
 Cd        11.3406006669        1.2340526597        5.6619430135
 Cd         9.6122435733        2.7073409419       10.1806072548
 Cd         0.5309011091        9.1339205341       10.0799220708
 Cd         9.8328377976       10.1616298424        5.7118042799
 Cd         3.4237704762       10.0024958312        8.3054261183
 Cd         4.9248709264        9.8147585945       12.4176325651
 Cd         8.6168301317        6.4493725832        1.4009341068
 Cd        14.5833677751        3.3347566436        5.0964776978
 Cd        10.8807702377        7.4816352267        9.3460168526
 Cd         6.9035152619       12.4168026129       13.8377295591
 Cd        14.9638543362        6.2876280553        3.1610560078
 Cd        12.7918414685        2.7800095291        8.5041157476
 Cd         4.9958728682       12.3118045809        6.1493414466
 Cd         4.9686994419       13.6802883453       10.5774865340
 Cd         8.6542096469       14.9339274153       11.8588328945
 Cd        10.2212461652       10.2196353525       -0.4100158540
 Cd        11.6301440446        6.8876426793        5.5141450111
 Cd         8.9416420743        8.8444476001       12.2000803613
 Cd        10.6672295287       11.8712703763       10.4042678274
 Cd        12.2554832186        8.5355667334        2.6145327977
 Cd        15.3125477254        9.1372646374        4.8277172231
 Cd        12.8183687314        8.9338871898       12.2289606093
 Cd        16.1608518878        9.0099069450        9.3025358283
 Cd        14.2115405514        5.9381720182        8.1668349855
 Cd         9.1615396605       14.7103660983        4.0654947561
 Cd         8.9055193839       13.9876153836        7.6781414557
 Cd        12.5270468262       13.6102385450        6.4775266452
 Cd         7.0615245412       10.6983867096        9.1632559128
 Cd        16.0897577807       11.9675607333        6.8807846604