426
 i =     7500, time =    15000.000, E =     -8405.8789709055
  O         8.2354837740       -0.5844502105       17.7371851262
  O        14.2904580070        0.3674137599        0.5651569114
  O         4.6775001449       12.9830225155        1.2402977108
  O         2.4449851046       16.2286879718       12.7801850155
  O        11.1260433378        3.1854926575       16.2209300562
  O        18.3565428568       15.0184741139        2.6786392856
  O        17.8280642359       11.5608273609       12.7519358015
  O        11.4460032559        0.8127013099       13.7357738733
  O        11.1280949597       13.4954343962       14.8725258596
  O        -0.3481258260       -0.3691199922        1.6522663697
  O         2.7106586030        4.5132753116       12.2364503273
  O         8.8255971600       12.9287165181       16.3859335203
  O         4.4359215817       16.0928818128        5.4364515844
  O        13.6387005688       16.6595973327       16.0893997791
  O        18.6462247936        1.0870105252        9.6097930084
  O        16.8601181822       17.2451937901        4.0069447440
  O         5.8918660185       17.5370705585       14.6053034608
  O         4.6344031855        0.4436547091        2.3316795223
  O         1.9920342706        9.6358337399       -0.7185200811
  O         8.0909296962       14.7351145010        2.1908382389
  O         0.2392195439       17.3342739511        3.6385764469
  O         1.1106555891        6.5371537103        2.9428149414
  O         8.2483418036        1.9984039949       16.9110666961
  O        10.4965861700        0.7815313377        3.5719245776
  O        12.8095540464       15.7290733751        6.6788782952
  O         0.6169300568       15.0635257282        5.1625432453
  O         4.8483596942        0.2313362447       10.9516894123
  O        18.8808538582       18.1715082582       17.2150168759
  O        17.4051686989        3.8635708968       -1.7259734327
  O         6.5072721683        1.8970794660       12.2265316765
  O         3.1840014552        9.7517190506       15.6625981522
  O         7.0798807002       13.3970005729        0.3071727058
  O         1.8244171354        4.7011967543        1.1319878328
  O         4.4346496111        7.5337026294       16.4198482612
  O        15.8042319065       16.2098289207        8.5344398228
  O         1.5259128876       16.0268988340       15.2883716484
  O         4.6351944408        0.4606135127       15.7164612340
  O        15.7180533910       18.3805977455        5.9462609555
  O        14.9015843807        5.6720788196       16.5259490964
  O         1.8608929385        3.9114103858        3.5284466984
  O        14.6090747573        7.9259310288       -1.3550960700
  O        -0.6072195020       14.1419169562       12.4920592680
  O         1.7828747924        4.4060324696       -1.4472631342
  O        -0.0038712595       11.6219153208        3.0366599256
  O         4.4882131689       -0.5340190020       -0.0928770479
  O         0.5831272259        4.6966519162       10.6138646345
  O        10.0321750755        0.3873336933       15.9235321451
  O         4.6248101506       16.9893932439       11.1430613233
  O        16.6050187853       12.5673600656        4.6380011358
  O        12.9160526839       16.5508168153        1.9542436162
  O        17.2719883191       -1.1481869429        9.7097504463
  O        16.3644909420        4.1206887114        1.6058930042
  O         3.1803136497       16.6383116095       -0.2292344156
  O        -0.3334762332        5.4363410272       -0.1687007442
  O         3.8677516680       12.4879972590       15.5968056366
  O        14.1857031702       14.9245626796       11.7277794119
  O        18.1983502335        2.1924726601        1.1831275511
  O         6.1992637663        0.9590726599        7.5976669684
  O         2.3168554324       14.4947913895        1.2175982819
  O        18.7912485416        4.4111985893        2.6169563539
  O        12.1746915729        7.9352134603       16.6683605594
  O         8.4412428537       -0.4450471830        2.2019588010
  O         6.4542341235       18.2609200632        9.2842160977
  O        10.2627116950       10.5407782177       16.6099343547
  O         3.7330657031       -1.5369167425        7.3925660690
  O         0.2721051534       11.3154291839       -2.1871466739
  O        12.4497690926       17.1351376288        4.4437291416
  O         2.9579054570        3.3332803156       14.7006839184
  O         3.2900763242        1.7209056752        0.2173933364
  O        13.9297959209       13.1235856420        4.2565197817
  O        18.3696724678        2.6047324133        5.8397835151
  O        12.4550939981       14.5037460220        0.1239060479
  O        19.0181220867       -0.4059545967       11.6672106167
  O         5.8482760168       11.0982705212       -0.1212217437
  O         8.9473057759       -0.9143335088        4.7851058061
  O        16.5814347188        0.8669979882       11.2415808050
  O        14.7944407796       -0.7032367366       -1.9070367061
  O         6.1289861599       -1.4527468450        6.3906693166
  O        10.1770326459        1.0264375760       -0.8489986157
  O         3.9907433520       -0.6239159664        4.7536590690
  O        17.4891682777        5.5198221653       14.3432000562
  O        10.8325833552       17.6815580932        6.5403717495
  O         4.9817270823       13.5189863333       -1.3744180236
  O         2.5015680843       16.3319695485        3.7682414899
  O        13.5305482700        3.6705588597       -1.9587664125
  O         5.2524452804        6.3677606994       -0.7065716043
  O         6.0335641558        1.7059876407        0.2323295543
  O         1.5635709294        9.2385492455       13.0277241150
  O         8.4038854203       -0.8017568521        7.4180137536
  O         3.5086715959       14.5093193123       11.0695808862
  O         0.9358678708       16.7714132818        1.0616457005
  O         1.6217923436        7.9348188897       16.6845939758
  O         9.7775792050       13.7317781772        0.3440066535
  O        16.8538571354       10.8793365822        9.6036103303
  O        17.3847139066        1.3746477278       16.3117705714
  O         9.5784074055       15.5484948569       15.5962340413
  O        14.6218546947        1.3327541244        7.0175007398
  O        10.9462456758       17.6054683070       14.6384120376
  O         8.3113946081       17.2110883231       14.1013419493
  O         6.9328976716        6.9368827227       -2.6800826306
  O         3.8241138657       14.0882949695        3.4609442593
  O        10.2721257739       15.6674527746       13.0394356412
  O         2.2139874509       -0.6742621096       -1.6476512644
  O         3.8392664296        2.1594359593       12.4284477084
  O        15.6519941744        3.1934420352       15.7592174296
  O         3.3607410211       17.8385180804       14.6446907393
  O        17.7136949314        0.2463890534        4.6371785803
  O        17.2147512968       -0.7582086009       13.7965350161
  O         8.3909662244       10.8604535651       14.8639711747
  O        14.0932659834        5.6458231347       -0.2086501781
  O         5.1002068730        2.8368772467       10.1796268698
  O         0.4638648175       17.2632448553        8.4812430409
  O        13.2243622426       18.4739639096        6.4538137126
  O        11.7369472690        5.6247940177       -1.5547985893
  O        14.8756996321       -0.6422417162        8.6203693362
  O        16.8582221297       16.9052592532       15.7464017634
  O         7.9883762949       15.8029531301       -0.2209185637
  O         0.7373457258       13.5757707789       15.8711189649
  O         5.3161555363       10.7657654570       16.6255545778
  O         2.1581832652       16.8111327141       10.3186308486
  O         5.1227785572       16.3505767036        2.7675451020
  O         1.5879833586        2.8454435182        5.8911525694
  O         1.9250246658        1.3121579087        9.5702267492
  O         8.3400646553        4.7300401396       16.1624344453
  O        15.0987084193        7.9670979213       13.4172792466
  O         1.2573588360        8.3325049615        4.9191710904
  O         6.0715202443        3.4704756201       16.8393546677
  O        10.8950992983       14.4402705889       17.4050091441
  O        15.8302151663       15.0210518101        3.8408548159
  O        17.8459657676       12.2464451722       15.4322984961
  O         0.2786296129       10.6231571839        9.0153691550
  O        11.2798700160        5.7200212997       15.1128660984
  O         0.9798402705       18.2349162941       13.7752806551
  O        18.6009519322       12.7247828754       10.3545608647
  O         1.7201707126        7.0395567909       -0.2756022737
  O        18.5750165303        6.0300355735       16.5781373833
  O         0.1979369185        2.8566174953        8.1445802547
  O         2.6744610465        7.4069765887       14.4591325445
  O        -0.4521309321        0.8586951029       13.9254031053
  O         1.0093002803       11.9240036715       12.1363631383
  O        14.2242625352       11.8696921763        0.1414003064
  O        10.6257533259       17.5808907790        2.6532926926
  O         1.4002639939        6.8198298825       12.1879509018
  O         0.1494597021        0.7043275070       -0.5253862011
  O        18.8201916695       15.5240436960       16.5119144183
  O         0.6111374414        0.1593035442        7.4612270191
  O         7.3749943698        0.3282721514       14.0800912447
  O         9.0940719806        1.8116042310       12.8323347903
  O        18.6263234398       16.7481383827       12.8391398362
  O        16.6472962844        6.2202504097       -0.8457217494
  O        14.9154101346       -0.8903395126       14.7791561903
  O        13.7258871863       12.5332916291       16.8254057429
  O        15.5144186081        1.8751638112       -1.3209885440
  O        -0.0835509192        7.5123421387       14.4268139787
  O        17.2857351670        3.4114062121       12.8273235087
  O         1.4838804049       17.6300122350        5.9398444448
  O         2.5857396597       12.0884730679        2.3304360681
  O        13.0414829872       10.1057422883       -1.6378790926
  O        16.8381433696       15.4069940343       11.3783541903
  O         4.5955506428       17.4742865473       17.0557307485
  O        14.4429503837       16.2945294482       -0.0997680713
  O        11.6754277852       12.1421465373       -0.6685334690
  O         7.3664394039        2.9555455039       14.5006712961
  O         6.8195655646       18.1767854203       12.0047901187
  O        16.9139050250       11.7001938032        0.4770879802
  O         2.8590188857       14.5442015911       16.7571766122
  O        16.4278401937       16.3766857122        1.5591558513
  O         2.1557953912       -0.5675081092        2.4903425426
  O         0.3429812713        4.8078593085       13.3405430008
  O        15.0788306985       17.3617578104       10.8848706577
  O        16.8933713240        7.9047344952       15.4819445914
  O         7.8576888860       10.8743615914       17.6911062649
  O        16.4728430437       10.1004392616       14.1464715167
  O        17.0096141649       16.4319886986       -1.0470547353
  O         0.8236196029       11.4950366037        0.4734240321
  O        19.2060874926       15.5986310063       10.2989708273
  O        19.5289256579        5.0159994622        6.5397798666
  O        16.8937554489        0.1282137056        0.0510758235
  O        18.2451863260       -1.7081947986        6.3324995897
  O        18.1268974390       12.4966463036        7.7726861617
  O         1.0115582713       15.2082165951       -1.0597230367
  O         2.6591723505       12.0561905997       -1.4416470466
  O         5.4931897078       10.5430312677       14.1419301902
  O        11.3678717493       14.9155551967        3.3333617548
  O         6.2039818076        8.8701865584       -1.2711985219
  O         3.1732292987       11.2644870037       13.5972576338
  O        17.1208905033        2.4493670452        3.5167812559
  O        12.6835591815       -0.2274659288       15.8672158546
  O        -0.7047555964        8.4292241026        3.0384473529
  O        15.7687157564       12.8554783977       14.0057087598
  O        15.3909023852       13.0314710993        2.1771613725
  O        13.3499635288        4.1459713419       14.8733685551
  O        11.3106800266        1.9301321348       11.3649165358
  O        18.7881131363        3.2178825319       15.0794206309
  O         9.6478696422        7.0055071815       16.7900342230
  O        11.0739869498        3.5836526742       13.6035533312
  O        15.6059609705       16.3509981806       13.4353450752
  O        11.7197258371       17.0242819244       -0.3439802187
  O        -0.4667389734        8.4958120623       -0.9183668193
  O         0.3172382055        1.5760047728        3.8346103170
  O         5.0160338170        4.4974218993       13.2396102979
  O        14.4720797478        9.0953194712       15.7260414343
  O        15.9237729650       14.1734491510       -0.1247649438
  O         0.6696280892        1.0097905507       16.2847844708
  O         1.7942433112       14.8616469293        8.5249753622
  O        12.1405457295        3.6438803464        0.3078082561
  O         0.6794543096       11.2493830757       14.6422092551
  O         8.3578349825        5.5124798014       -0.7316761126
  O         3.0615472978        1.6238412170        3.9545225972
  O         1.7703209695        9.4959844938        2.4593512951
 Na        10.5647181560       11.3748614742       14.0119526442
 Na        18.4647502931       13.4355686978        1.1214875234
 Na        14.6577269740        2.7049455397        0.8272501736
 Na        17.5854975854       10.1758127900       -1.1077054342
 Na        18.3436181097        6.4386188865        5.0502000308
 Na        11.9259722524       -0.2571045851        0.8974256172
 Na         6.1344169920        4.2559337120       -0.3071805540
 Na        12.6024735378       15.3229104607       13.5055125078
 Na        -0.3358446192        5.6148086766        8.6328823860
 Na         0.7373737018       13.4960044665        6.7844209245
 Na        13.1457312404       10.4449702507        7.9276427975
 Na         5.2399524701        5.7681381982       15.0914773761
 Na        11.1064181291        3.0483008868        2.8294168602
 Na        14.4313892105        0.7965844904       10.9144402806
 Na        16.3432485895        1.3892734845       13.3840410432
 Na         0.4781568883        9.4096172179        6.6585432064
 Na        10.0720829036        3.7262244308       -0.9974455498
 Na         2.6293948955       13.8063340437       13.4541680766
 Na         8.5611635218        6.2683662143        7.2129433296
 Na        17.2994803769       14.6729807579        8.9165114631
 Na        -2.9393601338        9.6616803429       11.7076265629
 Na         9.2269576099        5.3986483714       13.7399518160
 Na         3.8108359357       15.5580186238        7.7315436923
 Na        16.0509184556        5.8244886314       12.4252372338
 Na         5.5970684296       16.3518840513        0.4492101076
 Na         3.0449788180       10.2246328752        4.2892239477
 Na         2.6562745308        3.5965062778        9.8273688627
 Na         1.2899846924        2.4092969393        0.3421603898
 Na        17.8336540674        7.5528614186        1.0834612570
 Na         2.0251865287       12.7698463560        9.6010814983
 Na         6.4731370231        9.5123601885        1.7928069375
 Na        14.3097212296       14.7512481574       17.3395339571
 Na        13.3821123416       15.5047518566        9.4090716272
 Na         7.5168076850       16.8273091006       16.9660425138
 Na         6.7682602535       -1.5867706448        3.3729827278
 Na        12.1514128721        1.6870331967       -1.7880763881
 Na         6.2289676935        0.6551734785       -1.9970472191
 Na         2.1066838906        6.2098122939        5.3802809916
 Na        14.7087498698       12.6616359286       11.1130437696
 Na         6.2625361976       13.7293440437        3.1641019730
 Na        14.8952985286       18.3264786562        2.8338121786
 Na         3.6705375551        6.6677027257        1.2552835802
 Na        -0.6871670881       13.4706820516        4.1859555179
 Na         2.5581618247        1.1681094839       14.7346520094
 Na         3.8759998411        0.4314940225        8.5211509023
 Na        13.3200532012       12.3993094568       14.8328462955
 Na        15.1544705787       15.8295735285        6.1412773840
 Na        16.4998600030        2.5135724868        7.5939577592
 Na         9.4069521277       -1.8682067773        0.1789976191
 Na         5.7840754442        1.7492442685        5.0083142908
 Na         8.2387983853        1.2993222313        0.7784757854
 Na         3.9245093244        2.6931566535       17.4239418061
 Na        18.1076062720        3.2431086689       10.7733047834
 Na        12.5403673201       13.1386251921        2.6217784171
 Na        11.2573240212       16.8409897773       -2.4207576794
 Na         7.0696524689        9.0033022403       15.0873411979
 Na         1.8397698480       -0.5272030415       10.9884119905
 Na        17.4469793967       10.4499829328        3.0926417673
 Na        17.0387990593       14.6768414430       14.6180281629
 Na         1.4089620957        4.6572466666       15.7403531591
 Si        -0.5172799720       12.5557319343       11.9198241089
 Si         3.5801939608       17.9875236419       -1.0811054572
 Si         5.6322688351       12.7924965375        0.0009989372
 Si        15.0579490914        6.3805467065       -1.3355580111
 Si         0.8184181317        8.2540903433        3.3612136287
 Si        11.7245722581       16.4511672017        3.1320451720
 Si         5.6848054278       18.2015004810       10.7552861762
 Si         1.4609186298       11.1214168226       -0.9905280917
 Si         1.1297283721       16.4440152424        4.7019749898
 Si         3.5694756007       13.1715430859       17.0783836248
 Si        15.3791255532       15.9664239250       11.8122643507
 Si        18.2922873857       11.5364702017        9.0965780614
 Si        18.3373548130        0.6662972392        0.6062330654
 Si         8.8803868728       11.2884712563       16.3933943623
 Si         6.7107423116       -0.5717514401        7.6612839857
 Si        16.0370493901       15.7954468548        0.1123636655
 Si         0.6344387454        1.2626689011        8.6750318067
 Si         0.6396048275       -0.1239869699       -1.8628890412
 Si        18.0520149851        6.7669083648       15.2308693921
 Si         9.6245907669       -0.5203454943        3.2471286520
 Si        15.4305342795       13.3312811735        3.7833418770
 Si         5.5423004418        7.4540636715       -1.7544687515
 Si         4.6246759601        1.0273243584        0.6301594403
 Si        10.7188541800        2.0712681650       12.8785243257
 Si         5.0956310177        1.8026796107       11.4086257958
 Si         3.2559712296       16.0664796889       11.3731135722
 Si        17.0510616806       15.8240979972        3.0835854735
 Si         1.3453057518        5.4165476038       -0.3220701933
 Si        11.1739341279       13.7255776998       -0.5412756043
 Si         1.9274743071       15.7875780171        0.2306193047
 Si        13.2440674372       11.7729287604       -1.2678481117
 Si         1.0804943610        8.3060732996       -1.1687791517
 Si        17.9616211161        5.3963783170       -1.4890535760
 Si         8.2884611730       14.4595624463        0.6195966062
 Si         1.1538910508       15.0137229750       16.5982706699
 Si        17.9474447001       16.7845210579       17.0440474048
 Si         3.4174336704        0.0880617485        3.3472523758
 Si         7.1096379076       18.2057446111       13.6352937464
 Si        17.8249662573        0.0463490203       10.6094782289
 Si        13.9985196661       -1.2227701290       16.1605577105
 Si         3.2867493371       13.4482128293        2.0388986703
 Si        12.7591272602        4.6230678863       -0.7596223121
 Si         7.5763991378        1.7764730114       13.4385312568
 Si         4.0556394356       15.7469513323        3.8192690946
 Si         9.1592941015        0.6519564788       17.3765449213
 Si         8.2780402532        6.0484453926       -2.1722617538
 Si        12.3279589195       17.1043588480        6.0685320365
 Si        16.1429925425       17.5463467424       14.3879838212
 Si        17.2164272782       -1.1852201132        5.2859597889
 Si         1.6928867207        2.4353848239        4.2492715230
 Si         9.7687542338       16.5175193934       14.2376730128
 Si         4.6821095359       -1.1368172610       15.5191984820
 Si         7.4161294652        3.2233069766       16.1455286813
 Si        14.3823625661        4.2112113353       16.1036172465
 Si         9.2115053494       -1.6732549062        6.2443761930
 Si        18.4357370125       15.5722896358       11.7298915657
 Si        15.3691879335        0.3104046908       -0.5988527664
 Si         0.0631062428       12.1339140892       15.8211597043
 Si         0.7372610620       17.9178682074        2.2602426738
 Si        15.7045402233        8.7466685363       14.6593513716
 Si        11.7179090307        3.9815017051       15.0281021281
 Si        18.1723724704        1.7099515554        4.4726509581
 Si        18.3211673957        4.1178163793       13.7506759487
 Si        15.8020312708       17.5316233990        9.3516386480
 Si         1.2679357080        5.1656003173       11.9339907654
 Si         1.6401777548       10.8042646923       13.3628673317
 Si         0.2468116423        3.4546577749        6.5868011450
 Si        18.8205097425        1.5852302905       15.3090480639
 Si         1.3188561656        7.6960774543       13.5367055392
 Si         4.2928448374       10.9276734912       15.1566761592
 Si        16.5637161070        2.5984692461       17.0201611527
 Si         0.3515919626       -1.4208562735        7.0401694402
 Si        17.5948059219        3.3415429667        2.2244051672
 Si        14.6105778360       -0.2845595679        7.0253217224
 Si         1.9924878451       17.0600967267       14.1736763679
 Si         4.4512128114       -1.7277729396        6.0588086418
 Si        10.1455742214       14.0008458246       15.9687741447
 Si         6.2317060671       10.4763659004       -1.5430898127
 Si        -0.6383881277       18.5289815735       13.2121441237
 Si         1.0126383917        4.9646915740        2.5639816143
 Si        12.8536637560       16.1355743259        0.3563114109
 Si         2.9833282747        8.1866171179       15.9035586310
 Si        16.8965622284       11.7349311045       14.1731865720
 Si        15.6454212717       12.6000710073        0.6116970992
 Si        11.2224329576       -0.2101258085       15.0236752944
 Si         3.6347227182        3.6419884500       13.3132696692
 Si        11.2125427538        6.5056135761       16.5376788140
 Si        13.5661247821        8.7556882557       17.0515934340
 Si         1.1401055348       11.1054335695        2.1405835338
 Si         1.1211247010       16.0165942201        9.3431372563
 Se         8.3123178708        4.6737959567        9.7143269929
 Se         4.9303083062        7.4751751736        3.5745708448
 Se         5.2974542877        4.4697068012        6.4017885125
 Se        11.1022912664        6.7445228579       11.8791362562
 Se         8.4753134422        4.0111746394        2.6279231553
 Se        11.1140945364        1.3541368502        7.9334303522
 Se         4.2840787638       10.7369017290       10.3808661385
 Se         8.8486599334        7.5113813043        4.5538473058
 Se         2.3296332667        7.2404492329        8.5073513676
 Se         8.5000930480       10.9670885597       11.4896182989
 Se        12.4591639230        5.5734139260        3.1374351746
 Se        11.5584126359        5.3746933364        7.2958097707
 Se        13.8803945178        8.2410385382        9.6837407004
 Se         6.7260772595        7.3437471388       12.7261354980
 Se        13.6869200413        1.7661395365        3.6575723479
 Se        15.1246722813        4.1301239544        9.7595081519
 Se         6.8612911379       11.1544473143        4.5377286248
 Se         3.0596169052       11.6070240775        6.9830158074
 Se         6.9169883267       12.9110111573        8.5340566789
 Se         9.9295255831        8.5837301719        1.2534656282
 Se         6.3360146683        8.3153257427        8.1203377098
 Se        10.3664747169        9.6141935022        8.4173681146
 Se         6.7537645446       14.4347221926       12.6355120826
 Se        15.1384551315        8.2587030517        2.0876794721
 Se        12.6734039070        9.4879090015        4.8168918874
 Se        17.9598240776        7.4489748827       10.8397819855
 Se        12.8784117694       10.9592248230       12.1837410426
 Se        15.5706644360        5.8398224570        6.0163989434
 Se         8.1803877125       15.6723893899        6.1269399575
 Se        10.9089334698       14.0154133722        9.6865331488
 Se        10.2497494123       12.3750179685        5.5451800904
 Se        14.3817100560       12.8854772736        8.1083537279
 Se        16.8661271206        9.2875500622        6.3954509482
 Cd         6.4754632884        8.6900075666        5.5050204747
 Cd         6.5882748286        5.2723417827        4.2021850254
 Cd         6.5659467913        3.1343223667        8.2100080161
 Cd         6.1421628546        4.8348881233       11.4537418160
 Cd        11.6580940972        1.2747760798        5.3945533771
 Cd        10.2000703975        2.8651226229        9.7477230839
 Cd         0.7382871182        8.7316182309        9.9443948675
 Cd         9.8994183173        9.6880820490        5.5840408069
 Cd         3.9266261530        9.3971509672        8.2291310986
 Cd         5.1665809357        9.3299646806       12.1390599158
 Cd         9.1723323944        6.0851438039        1.1891363344
 Cd        14.3610679006        3.9228434677        4.7406420943
 Cd        11.3244124211        7.3751575832        9.2581182988
 Cd         7.0675424654       12.0908217601       13.7142614919
 Cd        14.9601844293        5.7126846008        1.9856743824
 Cd        13.4617463624        2.4989241012        8.6179912138
 Cd         5.4987646720       12.0376251044        6.4298984718
 Cd         5.3409621412       13.1558900884       10.8276533041
 Cd         9.2177898426       14.3251308282       11.7313409347
 Cd        10.4352221014        9.3124026748       -1.0233457154
 Cd        11.6619037428        7.1555511152        5.3062297942
 Cd         9.0852873777        8.4250139308       11.9580165474
 Cd        11.0029619507       11.3949097725       10.2635905297
 Cd        12.4558200708        8.5871875799        2.2601844428
 Cd        15.1131240916        8.2311284950        4.8347916099
 Cd        13.2076935281        8.4344158253       12.3360116781
 Cd        16.5480087450        8.7104103054        8.9842631852
 Cd        14.0618286696        6.0191427591        8.2030775581
 Cd         9.3590203024       14.4439518219        3.8802836537
 Cd         9.2784356030       13.8453058024        7.8598738533
 Cd        12.6712030971       13.4045555625        6.1155274952
 Cd         7.4906401815       10.4542133823        9.1316234525
 Cd        16.3143707520       11.8185622914        6.6784104645
