426
 i =     5900, time =    11800.000, E =     -8405.8750218277
  O         8.1125513679       -0.4373118041       17.8480215758
  O        14.4061893479        0.5207534175        0.6240739582
  O         4.9018132941       13.3053693155        1.4695126986
  O         2.6897703001       16.0484960386       13.1242653487
  O        11.3285070638        3.0774056036       16.5139100952
  O        18.1475944604       14.9946147953        2.7561338599
  O        17.8540606621       11.7522581240       13.0319331648
  O        11.5669518331        0.7931160282       14.0995531410
  O        11.1612495356       13.2850994119       14.7936657728
  O        -0.1545411881       -0.3169266919        1.8114301255
  O         2.8672484623        4.4505350348       12.4242151494
  O         8.8760002144       13.0466754566       16.2925534114
  O         4.7990819211       16.1888020820        5.2573435139
  O        13.7785552996       16.6719684824       16.3543079246
  O        18.3547572558        1.0907619862        9.7403804089
  O        16.9541555007       17.1738677624        4.0975031742
  O         5.8120184296       17.6743132905       14.9189083500
  O         4.4862874266        0.6758085073        2.3350476210
  O         2.0796546370        9.4264151582       -0.7145404964
  O         8.2375000993       14.6756231306        2.2097660917
  O         0.1663756180       17.1869940059        3.7000908371
  O         1.3257524059        6.6255436180        2.9202445176
  O         8.5185952327        2.1752244984       17.2474057204
  O        10.0476888754        1.0102510109        3.7024200661
  O        12.9547484998       15.7880038941        7.2424095092
  O         0.4026322087       15.1761157183        5.5097058121
  O         4.9280449594        0.1505016831       11.1678156661
  O        18.5868584797       18.1091713465       17.4280048929
  O        17.5573134027        3.6864840970       -1.8069774495
  O         6.8212145646        1.7420561692       12.3093109145
  O         3.3051726022        9.5705334709       15.8122525286
  O         7.1402599136       13.4293852127        0.0687010753
  O         1.7121635067        4.6715120096        1.1320279439
  O         4.7062987609        7.4469568047       16.5005497084
  O        15.8901931113       15.9441376491        8.5315553247
  O         1.5285857633       15.9725552551       15.6279673714
  O         4.6124964680        0.5076650370       15.9021933332
  O        15.5422461818       18.1942505433        6.0317457840
  O        14.9738520351        5.5448757570       16.6246134922
  O         1.6531687829        3.9994491874        3.6143413224
  O        14.6941359904        7.7869034867       -1.2426839164
  O        -0.3624894913       14.0504328483       12.6438162339
  O         2.1004063760        4.2791317972       -1.4919946560
  O         0.2174224692       11.6825494365        3.3389631431
  O         4.5030479176       -0.3763635688       -0.1962412272
  O         0.8816728373        4.5460457340       10.7218254849
  O        10.4148864265        0.2925534690       16.5095850371
  O         4.4277763319       16.9986368068       11.3023802345
  O        16.5046224187       12.5332790421        4.7182895102
  O        13.1009802786       16.7431901612        2.1391539673
  O        17.4439064940       -1.5611074885        9.8053929313
  O        16.3253816315        4.1127837696        1.6596418698
  O         3.4029655861       16.6080561147       -0.0463941238
  O        -0.2388878828        5.2898917522       -0.3490593947
  O         4.0076505518       12.2847318258       15.8287518503
  O        14.2470673120       14.7067392038       11.7584690679
  O        18.1567782852        2.2191117944        1.2177759573
  O         6.9290507009        0.7725501711        8.4335574639
  O         2.4871291976       14.4125844132        1.4063458910
  O        18.7255078767        4.7929723699        2.5525479883
  O        12.3455326646        7.7535151232       16.9752332412
  O         8.4254510965       -0.8009466386        2.4961377283
  O         6.2824385442       17.8670458102        9.5237828969
  O        10.5543794902       10.9375720691       16.8566493514
  O         3.6601728925       -1.5606263428        7.2556153470
  O         0.3011749858       11.3743680413       -1.6693700910
  O        12.6952296312       16.7366815344        4.8626839497
  O         3.2834080162        3.4046194195       14.8688916878
  O         3.4389901886        2.0349200251        0.1644511516
  O        13.7482775112       13.2699648010        4.6136338224
  O        18.1650829418        2.4006769082        6.1002823283
  O        12.2896333446       14.8232229256        0.4040876875
  O        18.9387674782       -0.5035044714       11.7323372378
  O         5.7786148927       11.1555836348       -0.0602849251
  O         8.9369753142       -1.0085961456        5.0625567870
  O        16.4514600590        0.3744063827       11.4035110875
  O        15.0928360718       -0.6305387657       -1.6860165871
  O         6.1355116900       -1.1107692556        6.6339713749
  O        10.1087113205        1.0557386922       -0.3662756340
  O         4.2845052056       -0.5089196729        4.7582769140
  O        17.6553879478        5.3373952328       14.5656121227
  O        10.6905231442       17.1766838734        6.7174137380
  O         4.9202273531       13.4043497409       -1.3042854870
  O         2.4770265231       16.1986110860        4.2594619683
  O        13.8203746067        3.5142796731       -1.6475110931
  O         5.4349134340        6.3403244993       -0.4582509158
  O         6.1391612605        1.6412878061        0.5401705688
  O         1.4448420208        9.2156879839       13.2189422043
  O         8.3443018000       -1.4564146158        7.8176031083
  O         3.6833884326       14.3177897349       11.5186018255
  O         1.1383075006       16.8195944863        1.2925848175
  O         1.9293937010        7.5988535015       16.8226072101
  O         9.8726583590       13.7062196003        0.2991195233
  O        16.8638952039       10.7100512103       10.0658101500
  O        17.5511656285        1.2660262312       15.9323716657
  O         9.8090801214       15.4793554238       15.7192243101
  O        14.6833543335        1.2216572508        6.9420008109
  O        10.9072987218       17.7011161328       14.9235717574
  O         8.3815312453       17.0917045751       14.4737884871
  O         7.1461325597        6.7792179235       -2.4274890895
  O         3.7632384845       14.0451302408        3.6814014869
  O        10.4145422468       15.8187245305       13.1125225004
  O         1.9396518775       -0.7026792860       -1.3506464574
  O         4.0324960318        1.9545890705       12.7403728377
  O        15.6891512250        3.0112554597       15.9340166988
  O         3.2561892900       17.9439312608       14.7639086955
  O        17.4133876628        0.2780964556        4.7195292575
  O        17.5067903557       -1.0175654314       14.1969368604
  O         8.5382872792       10.5581409953       15.1601297078
  O        14.0581400384        5.6436280660       -0.1832997368
  O         5.1352027405        2.8461363673       10.5394342310
  O         0.5448405200       17.1906539177        8.5561291588
  O        13.0148842206       18.4239211665        6.7986946832
  O        11.7183819323        5.4087445875       -1.3697570097
  O        15.0089861886       -0.8284622049        8.6244876752
  O        16.7212631172       16.4495797556       15.8432430760
  O         8.3616294763       15.8466135879       -0.2148457688
  O         0.5597939026       13.4215610669       16.1296889993
  O         5.4707070451       10.3757827894       16.5984787959
  O         2.0193333391       16.4856042461       10.6925610006
  O         4.7740266965       16.3228592530        2.7266523261
  O         1.4117479223        2.8413852936        5.9944754909
  O         1.8524219621        1.2854765408        9.6284081765
  O         8.3714416155        4.7129213622       16.2634994449
  O        15.2422795170        7.9339201439       13.4058248062
  O         1.1180611792        8.0820240003        5.0351605437
  O         6.2204585833        3.4549819771       17.0908632880
  O        11.1976814066       14.1618207926       17.3786011644
  O        15.7502141684       14.9304064642        4.0382222991
  O        17.8966923857       11.8472216488       15.8147420229
  O        -0.0487980386       10.0239963884        9.2053580201
  O        11.4322222380        5.6309414069       15.3590941784
  O         1.0602497673       18.0594722652       13.9159439672
  O        19.0429626488       12.1853592698       10.7228806016
  O         1.8977979551        6.8393260695       -0.2434190619
  O        18.7766026541        6.0682233929       16.7107146062
  O        -0.0097566957        2.7765652548        8.3286738355
  O         2.9837565795        7.2705552765       14.4939131447
  O        -0.1193890879        0.7194705700       13.8484044055
  O         1.1801183341       11.9857954328       12.8302251644
  O        14.5721920355       11.6751560742        0.1118111760
  O        10.9727194582       17.9396170640        3.2412474948
  O         1.4587953608        6.7191066028       12.4074500125
  O        -0.0827560945        0.7166198248       -0.5136861421
  O        18.7561859741       15.4384115931       16.8103868996
  O         0.2138499334        0.1712765696        7.5777617301
  O         7.5887578743        0.1483365644       14.2189037796
  O         9.2477166088        1.8884596444       13.0160725244
  O        18.6884230625       16.6260886643       12.7817685991
  O        16.7375759437        5.9911990425       -0.7898878100
  O        15.1097948235       -0.8135030524       15.0042194708
  O        13.7669085270       12.5427514461       17.0364337358
  O        16.2721017420        1.6423914712       -1.0660570999
  O         0.0606767228        7.4421089874       14.5662804667
  O        17.5111766111        3.2450450840       12.9057159290
  O         1.2196203857       17.6545559333        5.9723702619
  O         2.8549773927       11.9054114004        2.3988826377
  O        13.3130810434       10.0473806995       -1.3856268469
  O        16.8768370153       15.0547802149       11.5793857624
  O         4.3089168492       17.5125933068       17.1399181090
  O        14.3509455942       16.3235266033       -0.0921994315
  O        11.9392022062       12.1647978462       -0.1973043675
  O         7.5745266517        2.8107596159       14.7418035894
  O         6.6177913412       17.8562913143       12.3314194994
  O        17.0150812488       11.7391539720        1.0320321853
  O         2.6526972071       14.3173480243       16.9585750181
  O        16.2260238160       16.4234606685        1.7394675612
  O         2.1310451111       -0.5719220605        2.9483369876
  O         0.4389347136        4.6981774129       13.4069921842
  O        15.0856777305       16.9954386428       10.8259924274
  O        16.9024506525        7.6059256672       15.4224592324
  O         7.8840048777       11.0200240280       17.6913463355
  O        16.2007232681       10.2101824751       14.5089918122
  O        16.8647527785       16.3415730336       -0.9231096569
  O         0.8833144107       11.2959512272        0.7010849583
  O        19.0254333171       15.4309343430       10.2864256055
  O        19.3612004967        4.9233222876        6.5266574636
  O        16.9169391047       -0.1316708888        0.5074959590
  O        18.0056722291       -1.6467739728        6.6117834316
  O        18.2941835147       12.4256596950        8.3100700658
  O         1.0879420265       15.2856359065       -0.8381160207
  O         2.8083538422       12.0169133991       -1.0329626826
  O         5.5379038651       10.3713832793       14.1043249670
  O        11.2853918561       15.1989579413        3.3277185643
  O         6.3795355981        8.8260628717       -1.0194728816
  O         3.2339196508       11.1440223016       13.8822711034
  O        17.2886301337        2.7682961897        3.6471500869
  O        12.8875200818       -0.2048624411       16.1904589459
  O        -0.7075451400        8.4627035199        2.9785120967
  O        15.8760131102       12.9299061884       14.4775545311
  O        14.9569170129       12.9887706739        2.4053950373
  O        13.4913141933        4.0528271835       15.0038915786
  O        11.5271554162        1.8845991006       11.6403410373
  O        19.0393575119        3.0119044490       15.0970438320
  O         9.7864058044        6.9516832903       16.9645416988
  O        11.0901916054        3.5331789011       13.8620355386
  O        15.6080416670       16.3774029579       13.3755989618
  O        11.9698636574       17.5711766397       -0.1917299235
  O        -0.3260433793        8.3210962037       -0.9415090599
  O         0.2242364093        1.6942708656        3.9961202007
  O         5.2517404427        4.2503276559       13.4333406745
  O        14.4351993095        8.8107103230       15.8339703162
  O        15.8113044793       14.1031452493        0.2054488941
  O         0.7501215021        0.9137452573       16.3771145540
  O         1.6332631785       14.6977356835        8.6493775173
  O        12.2582239056        3.3976284920        0.3924677776
  O         0.8911716452       10.9094635648       15.2782828726
  O         8.6338823267        5.3357285382       -0.5104490924
  O         2.8345269491        1.5632306750        4.2094788650
  O         1.7608047990        9.5161088663        2.6714026149
 Na        10.7491017341       11.1165565254       14.1259121533
 Na        18.7229029271       13.3318498106        1.2735594818
 Na        14.5326514547        2.7083913960        1.3589029154
 Na        17.5000512121       10.3692705728       -0.5537687473
 Na        18.5178124577        6.7821035912        5.3315957290
 Na        11.9387464737       -0.0051002173        1.1274976361
 Na         6.3565058892        4.1856329854        0.0895844795
 Na        12.5221172807       14.8374826363       13.3018519693
 Na         0.0855683163        5.5917414158        8.8039434439
 Na         0.7682582033       13.5224871916        7.1091799224
 Na        13.5718276117        9.6118297154        7.4623452850
 Na         5.4112478189        4.9652810582       15.5320238043
 Na        10.8422825679        2.9594564742        2.7033622793
 Na        14.3934448693       -0.0897703009       10.8360013484
 Na        16.2060946296        1.6280817116       13.1858480556
 Na         0.8267988743        9.5120899457        6.8629385420
 Na        10.0149676831        3.5666270319       -1.0593341694
 Na         2.9500145167       13.6478956228       13.7574299317
 Na         8.5523520596        5.8363646635        7.3269747003
 Na        17.1722538125       14.0817262351        9.2795447297
 Na        -2.4374101723        9.4987783429       12.1004855127
 Na         9.2260204319        5.2338972323       13.8534631306
 Na         3.3966764553       15.5265074410        7.2900402401
 Na        15.6896553829        5.6606320487       13.0008343406
 Na         5.6897638242       16.6236020102        0.5423935423
 Na         3.4137721022       10.0133922587        4.2039744961
 Na         2.8017850627        3.4486599122        9.8656624245
 Na         1.3242444403        2.4325136620        0.0981385835
 Na        18.1952936234        7.4768975269        1.1135144885
 Na         2.1240320644       12.8676934239       10.2221172838
 Na         6.5817161622        9.8053078993        1.8088166848
 Na        14.6894388887       14.6813825746       16.6897768221
 Na        13.5019262615       15.0912145562        9.3132255544
 Na         8.0847114116       16.5627154622       16.8267938818
 Na         7.0658774588       -2.4321954173        3.5070101495
 Na        12.1895277197        1.4851587023       -1.3727013949
 Na         6.1657460111        0.7281713339       -1.7720359971
 Na         2.2151132638        6.0606963046        5.5939733896
 Na        15.2557097816       12.5532194235       11.4781376903
 Na         6.2976824004       13.9107936003        3.2757603511
 Na        15.3683539031       18.5768317497        2.3770960534
 Na         3.9782709508        6.5369986548        1.1253516202
 Na        -0.7365839466       13.6138282819        4.4566205104
 Na         2.8589708731        1.0280814927       14.7083529738
 Na         3.0218509712        0.6206140079        7.6080546922
 Na        13.7747416577       12.0331646258       14.8793226627
 Na        14.9407063907       15.5931025047        6.1359907272
 Na        16.5533418647        1.9072353238        8.2087753481
 Na         9.3090628078       -1.4112716209        0.4007990557
 Na         7.1072969319        1.1271153611        5.5307155815
 Na         8.0201384228        1.2718379136        1.4271742720
 Na         4.0370131125        2.8134323827       17.4187781983
 Na        18.1019871979        3.3995136317       10.7262228245
 Na        12.3272789635       13.2929135659        2.9083112286
 Na        11.6427864730       16.7278785355       -2.3541729227
 Na         7.0227769924        8.8449168516       15.3426584585
 Na         2.0568612043       -0.2174527331       11.4034289007
 Na        17.4860579023       10.5527206898        3.2787958585
 Na        17.8590304684       14.6828988402       14.8714044308
 Na         1.5103954065        4.7076913964       15.7505816975
 Si        -0.3037302615       12.5047926532       12.2641613005
 Si         3.4392492351       18.0425091589       -0.9452117522
 Si         5.6634345182       12.7750229493        0.0706562617
 Si        15.1551645435        6.1968874909       -1.2405125254
 Si         0.8020293565        8.2730645049        3.4831779741
 Si        11.9521459132       16.6593106539        3.3465323687
 Si         5.6220080216       18.0587054948       10.9601014926
 Si         1.6299383809       11.0097220221       -0.7268075101
 Si         1.0220832759       16.4245568356        4.8549495209
 Si         3.5930454806       13.0623361534       17.2409634350
 Si        15.4274428940       15.7592528288       11.8670277267
 Si        18.3245479930       11.2018414427        9.4417144977
 Si        18.3286408593        0.5435422080        0.8482272212
 Si         8.9780782775       11.3576147041       16.4794424444
 Si         6.8534778957       -0.7756767470        8.0937429636
 Si        15.8424803604       15.7519918683        0.2610813948
 Si         0.3869856150        1.2671374362        8.8821702228
 Si         0.4471044840       -0.1649750800       -1.7505427545
 Si        18.2210648902        6.6949116952       15.2589595638
 Si         9.6223566732       -0.5468553088        3.5594100936
 Si        15.1967402312       13.3083082960        3.9884297966
 Si         5.8122391068        7.3502165703       -1.5635192720
 Si         4.6082689743        1.1583378105        0.6879672900
 Si        10.9258519353        2.0564057133       13.1027106270
 Si         5.2461756665        1.6893757954       11.6406576260
 Si         3.2876692869       15.8513359139       11.6049796133
 Si        16.8611054188       15.7660696073        3.1853970657
 Si         1.4407060698        5.1986267077       -0.4077068453
 Si        11.3347188620       13.7637987163       -0.3800009626
 Si         2.0641357913       15.7456719037        0.4696985612
 Si        13.4410259914       11.6873315419       -1.0302579793
 Si         1.2191671185        8.0633852610       -1.0600272110
 Si        17.9965276936        5.2542641353       -1.4901887747
 Si         8.4410949848       14.4751886426        0.5648555723
 Si         1.0503338355       14.8871598882       16.8457104231
 Si        17.7888529764       16.6903829160       17.1741331679
 Si         3.4289052906        0.2297098958        3.4717657582
 Si         7.0378135514       17.9930269584       13.9148820383
 Si        17.7689114002       -0.1579848536       10.7229949003
 Si        14.1850722765       -1.1925930743       16.4140853040
 Si         3.4699370667       13.3956961391        2.2665536740
 Si        12.8682476136        4.4591295795       -0.6174526618
 Si         7.7687664835        1.6437540277       13.6423565075
 Si         3.9613969406       15.7968484651        3.9363649480
 Si         9.2400652183        0.7011513473       17.6570082813
 Si         8.4620334814        5.8959874361       -2.0004573906
 Si        12.3148591628       17.0120533874        6.4407353462
 Si        16.1905531263       17.3879230744       14.5237329270
 Si        17.0519925150       -1.2039576766        5.3761839535
 Si         1.5778178610        2.5566642348        4.3958742109
 Si         9.8928787487       16.5082121847       14.4225380398
 Si         4.5678235913       -1.0464306476       15.7048217260
 Si         7.5730826740        3.1382647467       16.3317700762
 Si        14.4252187337        3.9743307286       16.2812636876
 Si         9.0865618091       -1.9975811565        6.4606279641
 Si        18.4601834766       15.4289995849       11.7832051999
 Si        15.5864799636        0.3109522996       -0.4513750776
 Si         0.1100218006       11.9461189306       16.2071544416
 Si         0.8280464197       17.9640422993        2.3810581188
 Si        15.7230450670        8.6175438579       14.7808140960
 Si        11.8326542008        3.9065918519       15.2731806692
 Si        18.0706814363        1.7273187516        4.6170620606
 Si        18.4887481692        3.9652753683       13.9232364537
 Si        15.9327652363       17.3132809590        9.3673196860
 Si         1.3866021198        5.0666098961       12.1069491581
 Si         1.7122741123       10.7568634993       13.8606806013
 Si        -0.0180303740        3.3682194961        6.7326034757
 Si        19.0242670070        1.4075279884       15.2458517770
 Si         1.4917107427        7.6097846338       13.7690318547
 Si         4.3840625003       10.7260253943       15.1977385452
 Si        16.8049679924        2.3489749272       16.9847880228
 Si         0.1491098187       -1.4127341539        7.1885776454
 Si        17.6778781413        3.5208224263        2.2057198562
 Si        14.5493494929       -0.3684208393        7.0734849685
 Si         2.0803889382       16.8907260274       14.3846118453
 Si         4.6400441935       -1.6018427928        5.9937866871
 Si        10.3097981222       13.8657040280       15.9837078540
 Si         6.3417610750       10.4316486094       -1.4898424532
 Si        -0.4408095950       18.4060559209       13.3142143672
 Si         1.0114947155        5.1055038719        2.5241195433
 Si        12.8487925315       16.4323972775        0.4993450558
 Si         3.3177875978        8.0010366913       15.9203780903
 Si        16.9704400226       11.7509211569       14.4312176198
 Si        15.7019774421       12.5597669007        0.9374331457
 Si        11.4395704272       -0.1785432088       15.3673027932
 Si         3.8168306452        3.5179227431       13.4356365123
 Si        11.3602599914        6.4402853919       16.7784976663
 Si        13.6938719055        8.7178812581       17.2135535195
 Si         1.3107060917       11.0658921434        2.3487866321
 Si         1.0080164381       15.9225517407        9.4344893606
 Se         8.5471598344        4.5740773080       10.0368006961
 Se         5.1241205824        7.4342908815        3.6754308723
 Se         5.6411193070        4.0068494138        6.4804639426
 Se        11.3273691412        6.6087277331       12.0635805579
 Se         8.2695956064        4.1267113330        2.8896840718
 Se        11.1161934512        1.1098248235        8.0706932062
 Se         4.0117454494       10.5683818321       10.7357687322
 Se         9.2764277359        7.3407486496        4.7879938156
 Se         2.5382153377        7.0904940135        8.5971694196
 Se         8.8522404843       10.7674334646       11.6087232789
 Se        12.6376715406        5.4464824983        3.1396176949
 Se        11.6404928623        4.9681348521        7.4330173522
 Se        14.1300619290        7.7637193042        9.3467380776
 Se         7.0674829340        7.1542592192       12.8951967696
 Se        13.3717833676        1.6412904423        3.9038361211
 Se        14.9977462155        3.3690730115       10.0914722400
 Se         6.9678174586       11.2021709016        4.5358427737
 Se         3.0847247467       11.3835070707        6.7023820456
 Se         6.8942378599       12.6202927094        8.5191484519
 Se        10.1687387331        8.8625341401        1.3560091181
 Se         6.4924041835        8.0872435555        8.1967746532
 Se        10.3572842109        9.4866830692        8.4436002929
 Se         6.9143669627       14.1234678100       12.9419335256
 Se        15.3961390004        8.3685244286        2.1282541161
 Se        12.6822055943        9.0885897216        4.7786147740
 Se        17.8032383116        7.0322126097       10.5696040186
 Se        13.1035010713       10.9539391186       12.2317250302
 Se        15.8563413120        5.4584113779        5.9076261903
 Se         8.0034626557       15.4129207446        5.9711112918
 Se        10.7477518220       13.7382030265        9.6928074028
 Se        10.5673353491       12.2428731292        5.4718233552
 Se        14.2608109314       12.3408958066        8.1987759746
 Se        16.9489003613        9.2517044135        6.3348725353
 Cd         6.9227036295        8.6139544440        5.3188398570
 Cd         6.5595627296        5.2318793937        4.3628779601
 Cd         6.5599903352        2.9691543284        8.6769586624
 Cd         6.4945237724        4.6789711787       11.6401267146
 Cd        11.2959624727        1.3052847000        5.5330088727
 Cd        10.2294044350        2.5045327186       10.0853908166
 Cd         0.7236624142        8.0853799794       10.0616951872
 Cd         9.9248990912        9.7047524303        5.8190018858
 Cd         4.0936226106        9.2834472246        8.3359618236
 Cd         5.3770295852        9.0392066656       12.2372031275
 Cd         9.1090938694        6.3279890399        1.3916085712
 Cd        14.1150668209        3.8101294270        5.0431710733
 Cd        11.4148587158        7.1071186879        9.2517599827
 Cd         7.2662729142       11.7702504965       13.8504159327
 Cd        15.3096739065        5.8771426927        2.3325309772
 Cd        13.2505914394        2.2588694320        8.6015039418
 Cd         5.4892843085       12.1505673696        6.4473759418
 Cd         5.4693929760       12.9883721788       10.9991237889
 Cd         9.3094922988       14.3848565440       11.8148449912
 Cd        10.6339605176        9.7075497977       -0.9305845429
 Cd        11.8756184639        6.6770270302        5.5700755048
 Cd         9.3091698830        8.2218002065       11.8321019470
 Cd        11.3353410343       11.1768434332       10.3007913950
 Cd        12.5443742086        8.2984598976        2.2811807945
 Cd        15.2277675532        8.0420033625        4.8287864859
 Cd        13.5003714352        8.4323614362       11.9531129978
 Cd        16.6841675032        8.6716943087        9.0051918426
 Cd        14.6029941954        5.3823183445        8.4231524954
 Cd         9.4744161500       14.3098280928        4.0307331825
 Cd         9.2943882917       13.5007678078        7.5819883669
 Cd        12.6758904411       13.3137531263        6.5025022507
 Cd         7.7229686957       10.1380894402        9.0572363026
 Cd        16.3816643220       11.8112724072        6.8522426438
