426
 i =     7700, time =    15400.000, E =     -8405.8595570168
  O         7.9507326498       -0.3299651976       17.7833061968
  O        14.2295309038        0.7224901415        0.6224997448
  O         4.6882807808       13.2900326875        1.4298525118
  O         2.6976898975       16.5573982509       12.8329490393
  O        11.1618395501        3.5789708247       16.3125487015
  O        18.0675279688       15.0295253147        2.6940813422
  O        17.8261741189       11.7226939928       12.9273267860
  O        11.3168268570        1.1146644698       13.8709732300
  O        10.9855872327       13.5586926440       14.7194529310
  O        -0.6046261332       -0.3706616634        1.6624882707
  O         2.4606870472        4.5528062020       11.9902349941
  O         9.0193571709       13.0979152317       16.6162812146
  O         4.4634955251       16.3833435723        5.2820276784
  O        13.3019094108       16.9730940968       16.3063420901
  O        18.4932562609        1.1423198428        9.6587435475
  O        16.9431304465       17.3676798663        3.9703960107
  O         5.7347784607       17.7631868680       14.8318446169
  O         4.3561977718        0.7292767536        2.2967970285
  O         2.1497675984        9.7986884296       -0.7202984094
  O         7.9680661413       14.7405380909        2.1751547064
  O         0.0510566463       17.4639198425        3.5985319096
  O         0.8461111530        6.7641738907        2.8920057186
  O         7.9540319094        2.2113586051       16.9675704554
  O         9.8866034380        1.3544638520        3.4931607116
  O        12.6889676536       15.9139566378        7.0569446505
  O         0.4854667131       15.2399594493        5.3531825539
  O         4.7271161861        0.3591678991       11.0248915284
  O        18.6578552147       18.0824084593       16.9362144104
  O        17.4966456064        3.8199520915       -1.8345904841
  O         6.5299415380        2.1082153008       12.1052227550
  O         3.1358509816        9.7135884341       15.7068981872
  O         7.0562182506       13.3219877531        0.1323695349
  O         1.5283633684        4.8485441871        1.1648197863
  O         4.3840770763        7.6928132799       16.4902223711
  O        15.6699611843       16.1678305506        8.3804112716
  O         1.4701797830       16.1069611783       15.1803860900
  O         4.5301069206        0.7297954625       15.7084638015
  O        15.4956181789       18.3482210136        5.8649929508
  O        14.6978688615        5.7787073922       16.4766358354
  O         1.4509045865        4.3621144430        3.8979516188
  O        14.5147405687        8.0810653309       -1.4285945157
  O        -0.6637615875       14.2156238872       12.6608051378
  O         1.8168434754        4.7020500067       -1.5050598259
  O         0.1396887531       11.8812602740        3.2991120171
  O         4.1982043817       -0.2566525784       -0.2079720949
  O         0.3865933835        4.9826191949       10.4530125681
  O         9.9094767879        0.5814536860       16.0750592927
  O         4.4947067142       17.0958599781       10.9216033450
  O        16.3918869387       12.8539120765        4.7590965135
  O        12.9565440360       16.9393137069        2.0540724325
  O        17.0904430558       -1.2195931764        9.5346812838
  O        16.1648010498        4.1418746770        1.5608234651
  O         3.2521753149       16.6466634485       -0.3186292751
  O        -0.4797490087        5.4860826964       -0.3443328169
  O         4.1104015803       12.4177575452       15.8712535958
  O        13.9343859236       14.9849518741       11.8437782714
  O        18.3621139239        2.3769998673        1.0757782730
  O         6.1001983178        1.0586482189        7.8033627151
  O         2.2093467396       14.5388052536        1.1452078313
  O        18.5385215274        4.6714191328        2.4918085032
  O        12.1005845509        8.0591947964       16.7645498273
  O         8.0792949649       -0.5186464344        2.5079802750
  O         6.1811455246       18.3637262509        9.3493873050
  O        10.1561219223       10.5249448070       16.6546337646
  O         3.4650180275       -1.4908151022        7.3522007911
  O         0.0796825936       11.7579901850       -1.6664913582
  O        12.2468759994       17.3111981130        4.6162020038
  O         2.9147325075        3.7765130003       14.5529220225
  O         3.2271366822        2.1799605342        0.0482992847
  O        13.8226454748       13.7802414655        4.9138713793
  O        18.0184803738        2.8786517434        5.7699093772
  O        12.0720741905       14.9059807713        0.2627573726
  O        18.6148908552       -0.3557217507       11.5894287874
  O         5.5200222365       11.3325038433       -0.2722940055
  O         9.1566218986       -0.7173333977        4.9546763204
  O        16.1949755858        0.8176022047       11.1123736128
  O        14.6291978300       -0.5100144382       -1.7844374688
  O         5.8813349891       -1.2081909139        6.5310332283
  O         9.9992977784        1.2133568269       -0.7532880443
  O         4.0239793658       -0.4549594600        4.6781528905
  O        17.3234376653        5.5610835810       14.4319361833
  O        10.4670474190       17.3363059569        6.7467645043
  O         4.6457163365       13.7312700684       -1.2312674519
  O         2.3495543623       16.5218112777        3.7374042392
  O        13.5688910029        3.7686539408       -1.9254741904
  O         5.0188710079        6.3965200212       -0.6214992248
  O         5.8792255178        1.8124430409        0.3801672075
  O         1.1873792812        9.4515236133       13.2003257027
  O         8.2222274783       -0.9229207148        7.5151112196
  O         3.3392313279       14.6199529850       11.1118540932
  O         1.0951709274       17.0786099942        1.0233561082
  O         1.5952407001        7.9324332934       16.8993368994
  O         9.5700989114       13.8925564056        0.1698532826
  O        16.8929006593       10.8816557239        9.9537982541
  O        17.4174339240        1.4875440983       16.1526724159
  O         9.6500757475       15.6836973738       15.4677193241
  O        14.5829712509        1.3809137940        6.7400806587
  O        10.7403901938       17.9740437024       14.5549340038
  O         8.1427217242       17.3230616171       14.2622794556
  O         6.8959782467        7.1472980929       -2.5382301108
  O         3.6933022685       14.3180710675        3.4937514565
  O        10.2080443469       15.8641402797       12.9637025875
  O         1.9029704177       -0.6821745886       -1.5945173669
  O         3.6835250908        2.3013397087       12.4118590761
  O        15.5231357549        3.1938759552       15.8135652845
  O         3.0576113904       18.2468804911       14.6261891993
  O        17.3805203585        0.4471878900        4.7563225987
  O        17.1052341161       -0.9542243489       13.8818519084
  O         8.2360952299       11.0955226132       14.9990127847
  O        13.8562451152        5.9039677986       -0.3443895282
  O         4.9556686558        2.9600915704       10.1527032639
  O         0.2791028688       17.1860106374        8.2780986801
  O        12.9451152717       18.6377951889        6.6211430043
  O        11.5403095961        5.7190254643       -1.4403128270
  O        14.7330602533       -0.5714522625        8.5379948169
  O        16.3679107183       16.7193112771       15.9202545571
  O         7.7273100344       15.9409805987       -0.3458956374
  O         0.5141029347       13.5809143272       15.8168307168
  O         5.4683400461       10.5052807040       16.4490591273
  O         2.0259436172       16.9445717002       10.2795616718
  O         4.9339602935       16.5835011240        2.7657676576
  O         1.3996094568        2.9892953782        6.0246510392
  O         1.8332758630        1.4952710306        9.3383219316
  O         8.0922496024        4.8367608898       16.0346471282
  O        14.8887293153        8.1750779691       13.4146220593
  O         1.1232237484        8.2952524504        4.9516893368
  O         5.7651969037        3.6539490395       16.7635187566
  O        10.9779857441       14.6531851046       17.2624302741
  O        15.5737606127       15.1988745516        3.7740971696
  O        17.7399280255       12.1498513152       15.6944857639
  O        -0.0021877106       10.3964729714        8.9899723973
  O        11.4323892987        6.0102175101       15.1287679687
  O         0.8108799821       18.2831879931       13.6064517538
  O        18.7840209558       12.5526034235       10.5659547909
  O         1.6031441410        7.1387883060       -0.0614958872
  O        18.4655002711        6.2455091774       16.5632376544
  O        -0.1047841199        2.9073073221        8.0527824240
  O         2.4429703563        7.4256862468       14.6117538727
  O        -0.7496527394        0.8670934660       13.7723766430
  O         0.9490240546       12.1665636914       12.6907128835
  O        13.9845552480       12.2162787183        0.3136893472
  O        10.6311978096       18.2369936226        2.7137259804
  O         1.1608238314        6.9672963295       12.2349547538
  O        -0.1130327710        0.6492371315       -0.6999723565
  O        18.6154498628       15.5523988454       16.5273960580
  O         0.2036470919        0.3758554721        7.3741287965
  O         7.2666775531        0.4264648177       14.0759880587
  O         8.9784287159        2.0223121520       12.9078712300
  O        18.4152409498       16.7828094654       12.8209464516
  O        16.4785083324        6.1445805547       -0.9647459558
  O        14.7845043470       -0.7052989934       14.9439470498
  O        13.6417139615       12.8699383983       17.0409660179
  O        15.6145147730        1.8824704903       -1.4522111839
  O        -0.2270207696        7.5433056113       14.3386468565
  O        17.1208453982        3.4825550261       12.8401516631
  O         1.1493452886       17.8577370752        5.7662188071
  O         2.7181743606       12.0448081679        2.3433081652
  O        13.1297840695       10.2860267517       -1.3887833201
  O        16.6276460673       15.3784967609       11.3924846957
  O         4.3552964379       17.7545890512       16.9807225101
  O        14.2216295960       16.3689192076       -0.1034189721
  O        11.6958372739       12.4355702694       -0.6682446868
  O         7.1177972197        3.0585702485       14.5037525990
  O         6.5768111098       18.1093409165       12.1879159836
  O        16.6323726333       11.9042422195        0.9091679918
  O         2.6063067401       14.5200884072       16.6605393046
  O        16.1681225515       16.6565439809        1.6316157617
  O         1.8942130624       -0.2513364035        2.7089981684
  O         0.2273922473        4.7034868685       13.1999334900
  O        14.8861247953       17.2892998275       10.7435249646
  O        16.5578057353        7.8878554510       15.4352449269
  O         7.7895478529       10.7767592099       17.6299602155
  O        16.2433722899       10.2883355358       14.3300870535
  O        16.8858991649       16.4147884988       -0.9389956725
  O         0.7717690436       11.5052170953        0.7077227058
  O        19.0643035957       15.6043238549       10.3474685784
  O        19.2206565194        5.1694856960        6.5380275856
  O        16.7415296245        0.3055918870        0.1292519563
  O        17.9705273944       -1.4908209327        6.4420099648
  O        18.0469070575       12.4942089607        7.9909048812
  O         0.9291439133       15.3394196725       -1.1345270975
  O         2.5405474034       12.3275705787       -1.2725411135
  O         5.4500959627       10.5196079851       14.1443053116
  O        10.8222845615       15.5525212526        3.0548245396
  O         5.9261958270        8.9187799221       -0.8985787481
  O         2.9738143751       11.3650541764       13.9245694230
  O        17.1044649478        2.4597949958        3.2654667353
  O        12.5944279426        0.1621465477       15.8601841257
  O        -1.1266488422        8.5109032294        3.1799018078
  O        15.6427901935       12.8824717388       14.2246017003
  O        14.7477625371       12.9948747156        2.5606094340
  O        13.2904232907        4.2340744640       14.7355884371
  O        11.1709575647        2.2942892740       11.4503062359
  O        18.9040521758        3.2680895070       15.0663897307
  O         9.5259149958        6.8795530846       16.5931480874
  O        10.9672662478        3.8856639617       13.5961159420
  O        15.3384846098       16.5933493676       13.3708542267
  O        11.5432268928       17.4379129131       -0.1226306461
  O        -0.3271285466        8.7775619495       -0.6126268681
  O         0.2490889726        1.9079140958        3.8465730031
  O         4.8364256991        4.7915353833       13.0174550441
  O        14.2640719312        9.4424829861       15.7903585585
  O        15.7918703289       14.2300717167        0.3660745910
  O         0.5494499580        0.9738935453       16.1276886540
  O         1.7067474687       14.9479772606        8.6245646908
  O        12.1951306418        3.6919855863        0.2250185067
  O         0.6531267367       11.0085893964       15.1466976709
  O         8.2907136892        5.5447699686       -0.8248433983
  O         2.7732348714        1.8046083283        4.1406539063
  O         1.4139959883        9.6411739557        2.6579474821
 Na        10.5689405535       11.3547693595       14.1985836764
 Na        18.4859758854       13.4234204689        0.9632862596
 Na        14.2134193208        2.8252650795        1.2873159626
 Na        17.4817327749       10.4183167785       -0.4765607725
 Na        18.0980625418        6.4031739481        5.0425997762
 Na        11.9167775589        0.1452308446        0.8211267467
 Na         6.1163939257        4.0479261946       -0.2011612836
 Na        12.3930991610       15.0848092461       13.5194545075
 Na        -0.3471615029        6.0559497117        8.6302780459
 Na         0.7260676348       13.6360109871        6.9196860444
 Na        13.0536000080       10.3281109595        7.6384306981
 Na         4.8006925609        5.3197494326       15.2566430134
 Na        10.7786325367        3.3051214431        2.4520191238
 Na        13.9783701996        0.8050363770       10.4896674684
 Na        16.2227543524        1.4321126348       13.1673573330
 Na         0.4708862948        9.8802877912        6.8129721759
 Na         9.7357713378        3.5596819948       -1.5514659321
 Na         2.7554030360       13.9617647782       13.4649285097
 Na         8.5620403949        6.2539764908        7.2110547685
 Na        17.2928532703       14.6476863220        8.9475287116
 Na        -2.8219952825        9.8862581823       11.9851548808
 Na         8.9983051466        5.2692491624       13.8281462317
 Na         3.6445172924       15.6792022929        7.5264375370
 Na        15.7474238946        6.1300302192       12.4619386389
 Na         5.6504847474       16.8959500570        0.6788275312
 Na         3.0180563776        9.8690831157        4.5788417732
 Na         2.7417762432        3.5396521658        9.6873197216
 Na         1.0684166152        2.6313489904       -0.2930344082
 Na        18.1266396172        7.7338826756        1.0655919560
 Na         1.5676852749       12.9212267550        9.8360507047
 Na         6.1204107744        9.6133482959        1.8680133638
 Na        14.1238407935       15.0211372156       17.1392057120
 Na        12.9766786649       15.6962245071        9.3858114816
 Na         7.4574671526       16.6264898860       16.6554245989
 Na         6.5865275744       -1.9028632371        3.6866333770
 Na        12.2003784774        1.9683001682       -1.8463290092
 Na         6.0375872787        0.8864360768       -1.8442785334
 Na         2.3304910251        6.1405842898        5.8110927147
 Na        14.9997247397       12.9562455905       11.7021844315
 Na         6.2338094224       13.7383440258        3.1054428986
 Na        14.6413439138       18.5994493661        2.5549435663
 Na         3.7062446381        6.7691477685        1.2779696903
 Na        -0.7587692650       13.6496711441        4.5140789869
 Na         2.6536882404        1.3872680028       14.6009395301
 Na         3.7390762071        0.6383264791        8.4804471607
 Na        13.5389208257       12.3571837218       15.0347424049
 Na        14.8236429443       15.9656488427        6.1803499996
 Na        16.7579015537        2.0217116159        7.6585100209
 Na         9.2310997759       -1.9557666030        0.8395205961
 Na         5.8061090780        1.8948408026        4.8046186643
 Na         7.8567701900        1.0881864682        0.8332313854
 Na         3.6343496202        3.3901557246       17.2881857592
 Na        18.0310675994        3.2631912303       10.8206936412
 Na        12.3069275791       13.8802534293        2.6097539388
 Na        11.0547056178       17.0642846590       -2.3226520379
 Na         6.9026025423        8.9362490835       15.0990097065
 Na         1.7499001674        0.3878748816       11.4201990975
 Na        17.3734050578       10.8533841984        3.5714245914
 Na        17.0299229161       14.5791279381       15.0210838893
 Na         1.3390299929        4.9179646430       15.7329569619
 Si        -0.4961383190       12.6770125051       12.1480641185
 Si         3.4063690124       18.0682038118       -1.1137801532
 Si         5.4363242563       12.9635275134       -0.0043175468
 Si        14.9070273442        6.5155063797       -1.4518817772
 Si         0.4715510535        8.3577301422        3.4851808452
 Si        11.6078660764       16.9436286051        3.1374111712
 Si         5.5611586874       18.3256477942       10.8578049324
 Si         1.4256188397       11.3011304742       -0.8014701209
 Si         1.0501606031       16.5710002790        4.6291294464
 Si         3.4555920123       13.2647417144       17.1421274194
 Si        15.1221444676       16.0267026124       11.8219315862
 Si        18.1657966034       11.4952489851        9.2643313176
 Si        18.2353394069        0.8119155216        0.5767200501
 Si         8.7993997738       11.4074296119       16.4602421484
 Si         6.6215120404       -0.4444438372        7.8477419500
 Si        15.7887197529       15.9098858875        0.2422175867
 Si         0.3640981792        1.3939886264        8.6303134646
 Si         0.3930468002       -0.1490854289       -2.0235052536
 Si        17.8604671169        6.9427131225       15.1479780594
 Si         9.3648873815       -0.1824391554        3.3359232431
 Si        15.1276994480       13.6278466468        4.0467651533
 Si         5.5151718976        7.4571495504       -1.6725474355
 Si         4.3829126177        1.2961614151        0.5967285860
 Si        10.6887401226        2.3202919943       12.9609071070
 Si         4.9858257390        1.9714902822       11.4705912458
 Si         3.1803138693       16.2082546208       11.2669318388
 Si        16.8825229559       16.0041666662        3.1027202851
 Si         1.2499656652        5.5992435416       -0.3214784213
 Si        11.0162430462       13.9830351379       -0.6021562114
 Si         1.8574364061       15.8946830431        0.1595705394
 Si        13.2445936122       11.9917000697       -1.0863065396
 Si         1.2194155198        8.4948329845       -0.9600583898
 Si        17.8193675021        5.4404670120       -1.5973410667
 Si         8.0611433217       14.6006515180        0.5294592537
 Si         0.9043820248       15.0473368265       16.4949341687
 Si        17.6529092203       16.7564504638       17.0405809226
 Si         3.2593139055        0.3531768307        3.4174191209
 Si         6.8718657839       18.2724685858       13.8163498384
 Si        17.4626161734        0.1073250354       10.5407344231
 Si        13.8001563313       -0.9404617983       16.2735976367
 Si         3.1876027462       13.5873138050        2.1314226478
 Si        12.7080510206        4.7536901319       -0.7596907415
 Si         7.4693346699        1.8764958767       13.4070574933
 Si         3.8694403466       15.9517337507        3.7972804189
 Si         8.9503482855        0.8656247569       17.3966173851
 Si         8.1657295194        6.0656009685       -2.2683590860
 Si        12.1015917840       17.2234948133        6.3200410461
 Si        15.9327306415       17.5710156994       14.5231468739
 Si        17.0056645638       -1.0368120324        5.2314978142
 Si         1.4954457365        2.7814896838        4.4267079536
 Si         9.7051079927       16.7300215078       14.1779359651
 Si         4.4376190151       -0.8376959027       15.5570391483
 Si         7.1541976064        3.4409872034       16.1151787707
 Si        14.2681425256        4.2227725391       16.0422550565
 Si         9.0167181086       -1.6828215030        6.2173038995
 Si        18.2780903312       15.5902700056       11.7239615259
 Si        15.2236853689        0.4963644451       -0.6451868071
 Si        -0.0973143618       12.0877509338       16.1213733736
 Si         0.6484230644       18.0901038116        2.2341528293
 Si        15.4252191854        8.9056903575       14.7171576968
 Si        11.6685186909        4.3289818458       15.0354641475
 Si        18.1288446920        1.8446996596        4.4070175809
 Si        18.1534328013        4.1655517786       13.7747325200
 Si        15.6271353980       17.5268305575        9.1898216886
 Si         1.0017573754        5.3316443191       11.8881063754
 Si         1.4581658062       10.9660312357       13.7596763904
 Si        -0.0385933696        3.6053968487        6.5506300379
 Si        18.6752441994        1.6683193892       15.1918851023
 Si         1.2082736477        7.8301979797       13.5622669091
 Si         4.2278512427       10.9204896775       15.1575911866
 Si        16.5842052153        2.6506214493       16.9383446413
 Si         0.1400487631       -1.2278597289        6.9474178052
 Si        17.5085856632        3.5105371039        2.0150013781
 Si        14.4162490404       -0.2041603385        6.9058787251
 Si         1.8842336034       17.2143312038       14.0890224188
 Si         4.3149495769       -1.4727760808        6.0002392070
 Si        10.1369772156       14.1143985670       15.9330661515
 Si         6.1289299368       10.4900276756       -1.4853202964
 Si        -0.7808088109       18.4122920435       13.1789986495
 Si         0.7440465871        5.1906942941        2.5936576553
 Si        12.6612315685       16.4385669449        0.4317683276
 Si         2.9086648550        8.1994465466       15.9809854843
 Si        16.7825140362       11.7631527101       14.3354092955
 Si        15.3746668006       12.7482211574        1.0362874452
 Si        11.0800192041        0.0739135951       15.1232909907
 Si         3.5357612576        3.9311675307       13.0688938239
 Si        11.1476822559        6.7104416858       16.6647125625
 Si        13.4516175363        9.0318263615       17.0993894306
 Si         1.1947252000       11.2575318673        2.3315193938
 Si         0.9774079839       16.1440811204        9.3340276603
 Se         8.0745144020        4.8526866765        9.6766085647
 Se         4.8595601338        7.8375059512        3.8048919519
 Se         5.0973177771        4.1670938705        6.3281331535
 Se        11.0679121155        6.9434435344       11.6869915273
 Se         7.9137810031        4.6313560524        2.3804187880
 Se        11.1947962851        1.2706816357        8.0304381991
 Se         3.7217048496       10.8536533011       10.8170219085
 Se         8.9693648794        7.5770043262        4.6740442691
 Se         2.5444709099        7.5505773791        8.6663076876
 Se         8.6963802430       11.0024276613       11.5695718731
 Se        12.3390172736        5.4057642504        3.0473860743
 Se        11.3219978919        5.2840241512        7.6023998726
 Se        13.9008994774        8.1500896313        9.4113150926
 Se         6.7406490024        7.3290407621       12.7971709174
 Se        13.1990265339        1.6253323394        3.7048628921
 Se        14.9361787585        3.7697092569        9.7765704947
 Se         7.2285208219       11.4632747659        4.4821698891
 Se         3.0614116440       11.9089132377        6.8266756561
 Se         6.4328873724       13.0509378980        8.3927443775
 Se         9.8859469335        8.9970036847        1.5686452127
 Se         6.2105660832        8.4327627180        7.9630216609
 Se        10.3787292918        9.8934652359        8.5327436028
 Se         6.5695504053       14.4655353532       12.7038683362
 Se        15.0221490013        8.4047863164        1.9714470231
 Se        12.6247557153        9.0411102828        5.0498850990
 Se        17.6316320046        7.4379787612       10.6339130380
 Se        13.0229732441       11.2420042859       12.3518716366
 Se        15.6573239199        5.5365133341        5.8492025504
 Se         7.8253964574       15.7263870187        5.9595604133
 Se        10.4620668787       14.4004801355        9.5516349779
 Se        10.3963009115       12.5943454171        5.4593723799
 Se        14.1993977541       12.6229539718        8.6941480651
 Se        16.8586225407        9.4220080381        6.3286382392
 Cd         6.5606447955        9.1206648323        5.4553828402
 Cd         6.2771668299        5.5623149346        4.3869288947
 Cd         6.5481276806        3.1672230351        8.2643192027
 Cd         6.2720585451        5.0691092041       11.5041949307
 Cd        11.0798903193        1.3538593722        5.3678336994
 Cd        10.0188481982        3.0447722116        9.8117801662
 Cd         0.5913649902        8.5971456119        9.9273516310
 Cd        10.0845963537        9.8186283984        5.5197668450
 Cd         3.8500747862        9.7143663324        8.1811444542
 Cd         5.3331506824        9.4606215489       12.0929058512
 Cd         8.9074962041        6.5156494985        1.0439232836
 Cd        14.5800351784        3.3389603209        4.9671914846
 Cd        11.3767850451        7.4683053583        8.9850998428
 Cd         7.0225070508       11.9350635735       13.3637059913
 Cd        14.9950147455        5.7936646423        2.2157511550
 Cd        13.1776216678        3.0386483390        8.0849759333
 Cd         5.4574397112       12.2250897784        6.1998404485
 Cd         5.1940187385       13.3893269603       10.6992010776
 Cd         8.9874986997       14.4960927149       11.6485986135
 Cd        10.3586651115       10.0220931629       -0.7528011308
 Cd        11.6665812192        6.4430262335        5.3284398526
 Cd         8.9724029027        8.4335355342       11.8283683987
 Cd        11.4624609669       11.9399210272       10.2927019565
 Cd        12.2060183922        8.2021349534        2.5084303053
 Cd        15.1577666667        8.2451966473        4.7506648040
 Cd        13.0415719008        8.5875705214       12.0034579195
 Cd        16.3111782283        9.0069129187        8.9771634254
 Cd        14.8240805511        5.9942375973        8.3384232481
 Cd         9.1634856378       14.4582385958        3.9510370790
 Cd         8.8338059914       13.5816685868        7.6478469779
 Cd        12.6171939567       13.6095391581        6.8155447611
 Cd         7.6463376633       10.5463908894        8.9092172553
 Cd        16.0707757803       12.0512816715        6.8416158562
