426
 i =     9700, time =    19400.000, E =     -8405.8492183882
  O         7.9841735434       -0.1737365154       17.9049473847
  O        14.1284248899        0.9579950517        0.7511349139
  O         4.4817049043       13.3581308133        1.5769385518
  O         2.5620753061       16.3855178962       13.1731752537
  O        10.9281492729        3.6781628905       16.3147085967
  O        17.6984592177       15.3155883257        2.6800842057
  O        17.5214016375       11.9692338728       13.1993585709
  O        10.9801525973        1.2532561354       14.0203645547
  O        10.8756601685       13.6179275043       14.8923624865
  O        -0.7100598843       -0.1479594318        1.7845792343
  O         2.6661189455        4.8058163095       12.2151933327
  O         8.7262145215       13.3724802172       16.6024484742
  O         4.1494452215       16.4594527223        5.7131826263
  O        13.1921971502       17.1415250454       16.4964112704
  O        18.2625933111        1.4783749317        9.7504527349
  O        16.5768576529       17.5398023414        4.3087612448
  O         5.6534336502       18.1877168933       14.9954456541
  O         4.3537311139        0.8950751369        2.5328321349
  O         1.7551472501        9.8614151229       -0.7812746518
  O         7.9457064933       15.3175894291        2.2997710968
  O        -0.0579568754       17.7618929379        3.8888767197
  O         0.9453652177        6.8765500002        2.9764970817
  O         8.2694639240        2.5406201279       17.3249917066
  O         9.7484662322        1.1708776329        3.6655223921
  O        12.5364867217       16.0640603887        7.1116484522
  O         0.0638194876       15.3399234171        5.3946909694
  O         4.5805047219        0.4402877351       11.2479522767
  O        18.4941018931       18.4380954282       17.2869458201
  O        17.2164018222        4.2275934492       -1.5531367926
  O         6.2734339397        2.1089662151       12.6045624767
  O         3.0204637128       10.1315557434       15.8461476550
  O         6.8564213822       13.7539017012        0.4457085809
  O         1.4562469603        4.9912162609        1.1717193866
  O         4.2231400401        7.8013488836       16.6670815259
  O        15.7617194060       16.3974778443        8.6863487526
  O         1.1676016576       16.4393115544       15.5984949465
  O         4.0115620201        0.8741725409       16.0449374696
  O        15.3988419506       18.6431374089        6.2057296230
  O        14.6350528294        6.0422528204       16.6540898580
  O         1.6634575924        4.3083678230        3.6985458376
  O        14.2462409422        8.1326255688       -1.2166689837
  O        -0.8193630296       14.3713175142       12.8999328411
  O         1.6800681306        4.8729874315       -1.3833290492
  O        -0.2483140758       11.8906810491        3.1900207901
  O         4.1369954759       -0.3214787156        0.1328569456
  O         0.4430316252        4.8699433929       10.9468388615
  O        10.0232999749        0.7490241928       16.5821589627
  O         4.4309063605       17.2930475130       11.3146335800
  O        16.2904297204       12.5030388029        4.7545498658
  O        12.7877347551       16.9952352640        2.2278713182
  O        17.1521167155       -0.8903605266        9.7078115411
  O        16.0457019419        4.4873403810        1.6808659059
  O         3.1032085920       16.8078155392        0.0328654717
  O        -0.6782976817        5.6899703733       -0.0779663875
  O         3.8911050781       12.8806824350       15.9378727678
  O        14.0799810752       15.0753269010       11.8956735705
  O        17.9419611008        2.4938821112        1.1956261562
  O         5.9210627320        1.1713808817        7.9633539600
  O         2.1209903710       14.7420097056        1.4241702257
  O        18.5488875119        4.6574078423        2.6599465461
  O        12.0498761991        8.3318656453       16.8347052596
  O         8.0288845789       -0.6124110432        2.4093922080
  O         6.2833363483       18.4019208602        9.6473946968
  O        10.0170729267       10.9329251653       16.8130902869
  O         3.1999041369       -1.1389300875        7.5110211530
  O        -0.1129625598       11.6410462994       -1.7055697250
  O        12.2117091170       17.2568410002        4.7601940107
  O         2.8861910360        3.8841852118       14.7510103735
  O         3.2988972126        2.1592597214        0.3223253817
  O        13.6066975053       13.4813990791        4.8084578315
  O        17.9253609916        3.0348540006        6.0797572422
  O        12.1592283901       15.0913251549        0.4016673678
  O        18.8014387543       -0.1639589614       11.6652993363
  O         5.4895942719       11.5704789230       -0.1217261193
  O         8.7682052655       -0.8603547908        5.0330504093
  O        16.2406500761        0.8703907311       11.5720582966
  O        14.5474933791       -0.0929355982       -1.7674326791
  O         5.6593553049       -1.0786493572        6.6733211915
  O         9.8768797645        1.4008269539       -0.2694680992
  O         3.9432115001       -0.3498242598        4.7387226298
  O        17.4449764979        5.8478044331       14.4604960357
  O        10.4927209143       17.7587854451        7.0184212919
  O         4.6113422945       13.9794400848       -1.0016282395
  O         2.0778984117       16.4649904586        4.0462536338
  O        13.3378982595        4.0361395029       -1.9027933184
  O         4.9989479821        6.7005395686       -0.1878867790
  O         5.8804753505        1.6247784968        0.4033104500
  O         1.2411106500        9.7210177208       13.2575462195
  O         8.0284275524       -0.7816773869        7.7176389262
  O         3.0746284804       14.6861717620       11.2869402111
  O         0.8722445935       17.1409894916        1.3911570806
  O         1.5745859965        8.0955926958       16.8523288801
  O         9.5623998769       14.1446497024        0.3163712819
  O        16.7297528191       10.8620825791        9.9133859103
  O        17.3496375019        1.7215885397       16.2860422600
  O         9.5663474580       15.7971003757       15.6653447654
  O        14.3684582549        1.5645815816        7.2168754172
  O        10.5622035751       18.1357596910       14.8319339441
  O         8.0241248709       17.4158671261       14.3699607459
  O         6.7819249995        7.1454554122       -2.3855292932
  O         3.4554847921       14.4118355733        3.7512608281
  O        10.0555230903       16.1491388539       13.0145041054
  O         1.7697325125       -0.6064719029       -1.3313299087
  O         3.7316867046        2.5191734400       12.7089496225
  O        15.4804933190        3.5042472729       15.8677859952
  O         3.0494253810       18.1554732766       14.7630171129
  O        17.2557864227        0.6934563719        5.2033285305
  O        17.1759810266       -0.6976818486       14.0406391053
  O         8.0937938723       11.2056947865       15.0635031868
  O        14.0072644703        5.8381693741       -0.0684339222
  O         5.0010445970        2.9272059638       10.3519693307
  O         0.2624180378       17.6162158148        8.7039570415
  O        12.7532366720       18.8058325077        6.8583714774
  O        11.6494885577        6.0357965962       -1.4425246954
  O        14.6894022614       -0.5076691822        8.8466523313
  O        16.5107794952       16.9808576077       15.9968532376
  O         7.9531832589       16.1598713899       -0.1820639354
  O         0.6518982190       13.8604043581       16.3749589940
  O         5.1856037007       10.8982372346       16.6129480718
  O         2.0172467483       17.1270707646       10.5567041991
  O         4.8440064436       16.5725655939        3.1937755762
  O         1.3439271014        3.1998873583        6.1309528966
  O         1.6993039147        1.7725198756        9.5135967936
  O         8.1921851538        5.0522547565       16.3427451674
  O        15.2076510958        8.4027930980       13.4466268310
  O         1.1663537729        8.4760688542        5.0010893435
  O         5.8698768153        3.9481749791       17.2730515704
  O        10.9705426570       14.5071562343       17.4363482179
  O        15.6563338453       15.1356641286        4.3078591896
  O        17.5963571762       12.6348600912       15.8623277230
  O         0.1284306917       10.9302994843        9.2050153258
  O        11.1287206858        6.1902731147       15.3177981611
  O         0.8434267971       18.4178684137       13.7435192449
  O        18.3990485468       12.7486786163       10.7305509760
  O         1.4569810182        7.2945272002       -0.0922352558
  O        18.5086625001        6.3017651089       16.6494231855
  O        -0.1302823793        3.3302854519        8.2847991651
  O         2.4873896419        7.8100281414       14.6472275991
  O        -0.4400301243        1.0884401328       14.0408951046
  O         0.8032952473       12.4184247210       12.7321632708
  O        14.2783175652       12.1645698720        0.2287381959
  O        10.4953402588       18.1519771383        2.9608067921
  O         1.3276340895        7.1577199287       12.4415692912
  O        -0.1330722079        1.1004228317       -0.4631680718
  O        18.6522109885       15.7308187675       16.8304864516
  O         0.1173794972        0.5863477063        7.5223264292
  O         7.4972743825        0.5952329169       14.4286611688
  O         8.8067597781        2.6379178480       13.2184770519
  O        18.4512526499       17.0298951874       12.8811401264
  O        16.4920603814        6.6950168389       -0.8938892239
  O        14.7228046735       -0.7277974871       15.0106998005
  O        13.5264327286       13.0115390529       17.1468223294
  O        15.6394584941        2.2073630665       -1.1800742569
  O        -0.2127063820        7.9275219298       14.5409304035
  O        17.2556118219        3.8218369515       12.9270824948
  O         1.0794193279       17.7780074392        6.0688882446
  O         2.3805531239       12.2029923854        2.6165222803
  O        12.9903903448       10.5072519482       -1.5123079575
  O        16.7094906697       15.6187542693       11.4545469904
  O         4.2972804712       17.9128122974       17.2340676041
  O        14.1933909975       16.6686895801       -0.0730045367
  O        11.7138567134       12.6104342408       -0.2472627469
  O         7.1170062142        3.1607917055       14.9875554767
  O         6.6846372543       18.3646677898       12.2998850655
  O        16.8710619878       12.2290274910        0.9634559351
  O         2.6603420454       14.9750705509       17.1069140370
  O        15.7149644535       16.8319591957        1.9519765539
  O         1.8293922495       -0.1713653326        2.8985803456
  O         0.3472478518        4.9856980030       13.5896526169
  O        14.9791262078       17.5022840113       11.0440841762
  O        16.7369888754        8.0765996422       15.6518252907
  O         7.5545771851       11.1803468166       17.7405654800
  O        16.2282623002       10.4937295268       14.6670060361
  O        16.6953644043       16.7123941209       -0.8354798321
  O         0.7749546147       11.7144998969        0.6965786863
  O        19.0831398327       15.8533746157       10.5688292588
  O        19.2248723487        5.5002466217        6.6005355415
  O        16.6805212108        0.2865989456        0.1748927071
  O        17.9180057818       -1.3381606665        6.7182452495
  O        17.8456862962       12.8936333967        8.3050857032
  O         0.8383701958       15.5093386560       -0.7537032615
  O         2.4818670184       12.2661705419       -1.3754876240
  O         5.2732563340       10.9429467689       14.2011054289
  O        10.9884654474       15.4444847264        3.2408576671
  O         5.8974175406        9.1353304617       -0.9344220180
  O         2.9274906724       11.7762018598       13.9940698638
  O        16.9028426201        2.7951600170        3.6002559762
  O        12.5083254737        0.2635380277       16.0164597466
  O        -1.0342217423        8.4172970518        3.3635104956
  O        15.4614026294       13.1359783334       14.4388955223
  O        14.9441463612       13.1872664442        2.5163454664
  O        13.2168329535        4.6035764723       14.9218655175
  O        11.0008799551        2.3522035996       11.5920741800
  O        18.8005010031        3.4682662740       15.2911844288
  O         9.4867634206        7.4200463000       16.8999496070
  O        10.9628094721        3.9413626509       13.7501308812
  O        15.5239594250       16.6042401228       13.5987299160
  O        11.7085451646       17.8193423941       -0.0954907161
  O        -0.7045779852        8.7214997415       -0.9500747827
  O         0.0350879626        2.1560310525        4.1042474549
  O         5.0459348537        4.7667101195       13.4855396745
  O        14.3546674005        9.3672278770       15.8832063571
  O        15.6578602152       14.5523760114        0.2584875744
  O         0.5892808457        1.2736408998       16.4543646494
  O         1.4062600005       15.1771861597        8.6705931236
  O        11.9697706111        3.9651295397        0.2626407516
  O         0.4642981512       11.4114238180       15.1522000564
  O         8.3794433201        5.7991660100       -0.5352959895
  O         2.6977573529        1.9324900482        4.2987870705
  O         1.2259410356        9.5848807047        2.4593326567
 Na        10.2375746464       11.4414602858       14.1339232847
 Na        18.5393783819       13.8483106853        1.0341801042
 Na        13.8895722515        3.3175273727        1.2536264753
 Na        17.4782782102       10.7756877846       -0.7507267034
 Na        17.6854643797        6.7050528257        5.0636442483
 Na        11.8298033435        0.2853548852        1.1192992878
 Na         5.7811447454        4.4437367913        0.3487976424
 Na        11.9153775842       14.8253828324       12.9717929298
 Na        -0.1247342211        5.8801839320        9.1557070604
 Na         0.4439154462       13.8687744489        7.1436913640
 Na        13.1143251813       10.2213489500        8.0897083733
 Na         4.7826618372        5.4282405592       15.6618977250
 Na        10.7165728642        3.2972912306        2.2413123987
 Na        13.8980065836        0.3981442990       11.1054228325
 Na        16.0313745612        1.9504112439       13.4667713358
 Na         0.4068770664        9.9361427341        6.5316262307
 Na         9.9372454003        3.7854942621       -0.8219333773
 Na         2.6574179507       14.1150832825       13.8403934388
 Na         7.9381373141        6.6406812632        7.5270005968
 Na        17.6244208253       15.1494742410        8.9476490038
 Na        -2.5913050639        9.7538126327       12.0921314293
 Na         8.8862763923        4.9045442534       13.9766433686
 Na         3.3613538989       15.6780667220        7.6045113059
 Na        15.7421488204        6.1155513254       12.4298439082
 Na         6.0431894739       17.2420934010        1.4366225312
 Na         3.0338741037       10.0499606612        4.3329127441
 Na         2.7023829596        3.7981901445       10.0527372304
 Na         1.1833565582        2.8424460432        0.3523045822
 Na        17.9739513950        7.6740755029        1.1533573017
 Na         1.8072754896       12.8158252961       10.1477942707
 Na         5.8973490070        9.6205955491        1.6745429152
 Na        13.6531535601       15.1288188411       17.0789710825
 Na        13.3063097098       15.5196637013        9.4892840481
 Na         7.5175864489       16.9086130503       17.0817070334
 Na         6.3121294391       -1.3723459364        4.0593870538
 Na        12.0841424222        1.9254378308       -1.6765234691
 Na         5.8082971991        0.7538900026       -1.8823244572
 Na         2.2706715285        6.6886690769        5.9262915532
 Na        15.1112386642       12.8661879461       11.4602636980
 Na         6.0101864347       14.4057731846        3.2899504080
 Na        14.7472176982       18.8456380868        2.8721650140
 Na         3.4449302769        7.3589519794        1.0461614403
 Na        -1.0779067560       13.8060171862        4.1658378646
 Na         2.6038216500        1.6107933602       14.5711800534
 Na         3.4214587647        0.9340881500        8.3501854145
 Na        13.3154340374       12.4579796133       15.0820010368
 Na        15.1245691043       15.7175768227        6.6687757233
 Na        16.3973807631        2.5758845716        8.1279894054
 Na         9.3014570320       -1.4252878325        0.5388507679
 Na         5.4846919574        2.2657027343        5.4763335739
 Na         7.8198824462        1.3628028488        1.3841573879
 Na         3.4266559283        2.8803463148       17.4828363947
 Na        17.9605076427        3.6346529223       10.8334934793
 Na        12.4122168022       13.6657621320        2.3819960886
 Na        11.2289600434       17.0828260909       -2.0708222977
 Na         6.7957763146        9.2172822405       15.2120436194
 Na         1.7400448796       -0.0312263225       10.9854707176
 Na        17.1692589381       10.8733514471        3.3501161147
 Na        16.9058456918       14.9061320322       14.8921274491
 Na         1.2243253700        5.0352648603       15.7613826021
 Si        -0.7563669785       12.8436281803       12.3105192380
 Si         3.2676020812       18.1598292884       -0.8323064561
 Si         5.3756535009       13.1584865949        0.2210419055
 Si        14.8838196185        6.7279832395       -1.1437317653
 Si         0.5217265433        8.3569143908        3.5551288956
 Si        11.5517529756       16.9084703263        3.3683866590
 Si         5.5811392124       18.4812479872       11.0634841748
 Si         1.2560082726       11.4089725433       -0.8138702551
 Si         0.7320559749       16.6229310489        4.8812739438
 Si         3.3854525684       13.5170769483       17.3340849361
 Si        15.2572052748       16.1828487313       11.9865293557
 Si        18.0715146698       11.7013874507        9.3841869723
 Si        18.0491348778        0.9199145051        0.6284524039
 Si         8.6035164740       11.7012774318       16.5472079778
 Si         6.3921278460       -0.4387375145        7.9989438118
 Si        15.6612533690       16.1651486306        0.3955709820
 Si         0.2186324131        1.6610429265        8.8380311045
 Si         0.3477423107        0.0950264327       -1.7849498413
 Si        17.9826830221        7.1561206360       15.3009641810
 Si         9.2151791815       -0.2905188774        3.4833761154
 Si        15.0769658872       13.5649638733        4.1396380275
 Si         5.4369176389        7.5772733405       -1.4393783947
 Si         4.4304176797        1.2428664283        0.8277517922
 Si        10.4441736708        2.4805082411       13.0580659499
 Si         4.9638135014        2.0286496780       11.6774452890
 Si         3.1280645760       16.2733086583       11.5398732584
 Si        16.5256906599       16.1460336908        3.3183362600
 Si         1.0386922886        5.7520319018       -0.2665295351
 Si        10.9937759271       14.0963695856       -0.3835063363
 Si         1.6970094432       16.0139293212        0.5474243022
 Si        13.2224421625       12.1487441262       -1.0050400196
 Si         0.8489952198        8.5130529935       -1.1185970098
 Si        17.7358224299        5.7514642618       -1.3663751978
 Si         8.0397946409       14.9113029353        0.7666395106
 Si         0.9913249272       15.3440214372       16.9479544340
 Si        17.6388957010       16.9674573114       17.2290154494
 Si         3.1110432703        0.5158022380        3.5073174466
 Si         6.8960998571       18.5347052434       13.9708130835
 Si        17.4931638480        0.3062104355       10.7700203423
 Si        13.7469522161       -0.7959183882       16.4022416889
 Si         3.0417006732       13.6832497666        2.2758490668
 Si        12.6774086751        5.0206588537       -0.7264999761
 Si         7.4090626143        2.0832924844       13.8300149400
 Si         3.7076199382       16.0802323421        4.1442062909
 Si         8.9500127769        1.0799499543       17.8298791513
 Si         8.2073096695        6.4008506070       -1.9699049722
 Si        12.0480060741       17.3829339928        6.4356719822
 Si        16.0230691702       17.7501520267       14.6303908095
 Si        16.9061522087       -0.8148626863        5.5101654616
 Si         1.4519701769        2.9155508368        4.5604692520
 Si         9.6226430690       16.8735121465       14.3869435961
 Si         4.2294391741       -0.7031933288       15.7637835201
 Si         7.2285721087        3.6657938696       16.5546283359
 Si        14.2055726334        4.5561255984       16.1969286955
 Si         8.9461152674       -1.5096679385        6.5419691147
 Si        18.2591888663       15.7496626813       11.9602563337
 Si        15.1506574365        0.7666387181       -0.4662725354
 Si        -0.1847466883       12.4602229328       16.2826946481
 Si         0.4455240380       18.2979590856        2.4517176755
 Si        15.6377628222        8.9832604120       14.8344063371
 Si        11.5833834184        4.5058319633       15.1383976106
 Si        17.9505239969        2.1442874702        4.7562029164
 Si        18.1986841201        4.4726100445       13.9925335387
 Si        15.6984822502       17.7187397762        9.5476923543
 Si         1.1067035792        5.4995179426       12.2353969419
 Si         1.4055152794       11.2587919559       13.8644126868
 Si        -0.1458858211        3.9156907614        6.6889045492
 Si        18.7348297842        1.8465820635       15.4442353645
 Si         1.2059951085        8.1038423161       13.6930883206
 Si         4.1084634245       11.2977316897       15.2787960708
 Si        16.4904078628        2.9305997351       17.0509805796
 Si         0.0978516347       -1.0514576580        7.2484028813
 Si        17.2646019348        3.5948777019        2.2257355663
 Si        14.3047957666       -0.0295459400        7.2214443389
 Si         1.7832219994       17.3017249251       14.3638732014
 Si         4.1092717797       -1.2972424715        6.1897291443
 Si        10.0654012498       14.2209559496       16.0724742349
 Si         5.9922928439       10.7031232829       -1.4630025583
 Si        -0.6972629000       18.7343742721       13.2694544686
 Si         0.7155054498        5.2267710364        2.6344690303
 Si        12.6881296809       16.7039640982        0.5389472904
 Si         2.8914808790        8.5515092607       16.0975893124
 Si        16.5959503823       12.0662057339       14.5632903055
 Si        15.5292628998       12.9982532530        1.0151490194
 Si        10.9597912470        0.2330464492       15.3393994104
 Si         3.6117713679        4.0483100587       13.3694426846
 Si        11.0248352538        7.0334700094       16.6845290774
 Si        13.4467404102        9.0918055424       17.1326149883
 Si         0.9399543944       11.2840597530        2.3710072670
 Si         0.9309271551       16.3591493619        9.5739588262
 Se         7.8678226052        5.1710831447        9.9446511886
 Se         4.5361942803        7.8860094471        3.6090009100
 Se         5.1322031300        4.7168451275        6.6653889390
 Se        10.9489768706        6.9518036115       11.8665533029
 Se         7.7451979910        4.4553265685        2.7784156063
 Se        10.3465475552        1.5366122694        8.1728973534
 Se         3.7085677889       11.1195501606       10.7742097882
 Se         8.8309219901        7.6097461995        5.0645108256
 Se         2.5064718622        7.7075243649        9.1650502431
 Se         8.3168214637       11.0977678748       11.6945277008
 Se        12.0878170216        5.6533617191        2.8845599747
 Se        11.3283216092        5.5755610549        7.7267700969
 Se        13.8653099310        8.1178808743        9.8641645767
 Se         6.3322122490        7.6500154859       13.0757797323
 Se        12.8912322314        1.5304173207        3.9752721918
 Se        14.3404865381        3.7700833847        9.9447445053
 Se         6.4224824610       11.4004037832        4.4053566031
 Se         2.7684626605       11.9353277780        6.8466917830
 Se         6.5955203250       13.2518813337        8.5375868769
 Se        10.0391794774        8.9416944291        1.5062480717
 Se         6.1599734553        8.7046494222        8.1332888341
 Se        10.0339160382       10.0200580635        8.4921916828
 Se         6.3444317722       14.7625208504       12.9018297856
 Se        15.1610335539        8.5236325461        2.4383162789
 Se        12.4532298545        9.0483065254        5.3550511243
 Se        17.7303724084        7.4921124723       10.6834372175
 Se        12.5436662414       11.3421666605       12.2893300723
 Se        15.2367999049        5.5915721034        5.8551503863
 Se         7.9146776421       15.8805737066        6.2025798679
 Se        10.4825743533       14.3328167258        9.9532790095
 Se         9.8739622899       12.5991546719        5.5406752204
 Se        14.1253683181       12.8566342643        8.2991396439
 Se        16.8133397639        9.3580854229        6.5919932617
 Cd         6.2769925127        8.9788887288        5.3643874957
 Cd         6.3119161813        5.6670823322        4.5373611706
 Cd         6.4139654869        3.2522108809        8.6094606762
 Cd         6.0147635161        5.1765720298       11.6172428524
 Cd        10.7382320632        1.6819000874        5.5760579178
 Cd        10.1694843440        3.6225350375       10.0512203317
 Cd         0.3938006983        8.9375053994        9.8772013095
 Cd         9.7762385256        9.8827182180        5.7291689927
 Cd         3.4914300739        9.9048559666        8.3555871198
 Cd         5.0123310656        9.6628261104       12.3174687879
 Cd         9.0587569179        6.3186425072        1.4262843476
 Cd        14.3258903045        3.1394994141        5.2071751146
 Cd        11.0904744536        7.6870009761        9.3210439752
 Cd         6.9078222631       12.3335634736       13.5988812741
 Cd        14.7875424503        5.9133805858        3.0185611829
 Cd        12.7037263742        2.5438505207        8.3365327222
 Cd         5.2410811740       12.1179381004        6.5566451990
 Cd         5.0631038939       13.3658615473       10.8370418565
 Cd         8.6031419619       15.0524066440       11.6260518819
 Cd        10.3608011978       10.0671372570       -0.7417168734
 Cd        11.3549781716        6.6167312613        5.2331006614
 Cd         8.8118565371        8.3015846473       12.0223107230
 Cd        10.7919423890       11.7177264819       10.2774760028
 Cd        12.3884666900        8.4430315338        2.5284498947
 Cd        15.0392998565        8.7815568842        4.9631357065
 Cd        13.1001108903        8.7084294109       12.3379815165
 Cd        16.4460433370        8.8576445606        9.0096206394
 Cd        13.9354501846        5.8079352929        8.3665869791
 Cd         9.1818438483       14.9036293545        4.1803251228
 Cd         9.0710015760       13.9205011383        7.7024301111
 Cd        12.2667497078       13.5938136668        6.4735490840
 Cd         7.3247129192       10.7120982582        9.2622842068
 Cd        16.2505061325       12.0754970780        6.9224474255
