426
 i =     5400, time =    10800.000, E =     -8405.8876338298
  O         8.0772239223       -0.4271163369       17.6927504940
  O        14.2940331943        0.6863716920        0.6030523325
  O         4.8005510273       13.2301676515        1.4670384656
  O         2.7600895754       16.0870490965       13.0429251921
  O        11.3008663356        3.2583752250       16.4340006570
  O        17.9590877112       15.2094579989        2.6764062989
  O        17.8917639801       11.7870562469       13.0536271601
  O        11.5326174884        0.9627963466       13.9307960677
  O        11.2454981096       13.4721525033       14.8202180337
  O        -0.3006739363       -0.2660875226        2.0139746424
  O         2.7226316025        4.4723376050       12.1850594689
  O         8.9641377924       13.1135601497       16.2410631498
  O         4.6178447520       16.2809447073        5.5844901326
  O        13.6847015105       16.9358197031       16.3661360511
  O        18.4847278618        1.0362226008        9.6327072040
  O        16.7503099671       17.4312051661        4.2315855199
  O         5.9586239468       17.8399358731       14.9003351180
  O         4.5755362999        0.5580071491        2.5016361186
  O         2.0189022699        9.7712094521       -0.5958779166
  O         8.0572135220       14.8770109297        2.2524247942
  O         0.2175647573       17.3096479384        3.8080670978
  O         1.2483896482        6.5356787530        2.9319819890
  O         8.3653553604        2.2252476256       17.1646648166
  O         9.8516341930        1.2123623458        4.0587196018
  O        12.8130211071       15.6596630820        6.8898825219
  O         0.3580452448       15.0930486950        5.2463733878
  O         5.0377487245        0.3394520635       11.2391777867
  O        18.8834526927       18.0290973407       17.4192073478
  O        17.6565308097        3.8054697808       -1.6162625978
  O         6.6961998930        2.1146732333       12.2879565296
  O         3.4038397602        9.7815688747       16.1988659113
  O         7.1737533929       13.6689671948        0.1375048767
  O         1.7250172592        4.7910376857        1.1273267107
  O         4.6073397146        7.4606964431       16.7982567324
  O        15.6894988977       15.9390049423        8.7688780496
  O         1.5493175204       16.0593942643       15.5443456784
  O         4.5572679023        0.6734007559       15.9067849720
  O        15.7312833022       18.2532213602        6.5354536061
  O        15.0926385019        5.6202046772       16.7542392327
  O         1.6379554387        3.8982507224        3.6031735085
  O        14.5644105038        7.9276460633       -1.3213782991
  O        -0.4958131513       14.2346135381       12.6241463360
  O         2.0292490631        4.7272485681       -1.4949098057
  O         0.0444012596       11.6364250137        3.4110708928
  O         4.5032201905       -0.4012302480        0.0358659267
  O         0.5265875287        4.7732161208       10.7813226437
  O        10.1429098553        0.4610050863       16.1547027804
  O         4.4221982988       17.2129136679       11.1078827028
  O        16.5495449857       12.6270331368        4.6255132947
  O        12.9706631707       17.0394285845        2.1558784651
  O        17.1919831019       -1.3884791755        9.6977274856
  O        16.2333488301        4.1134783718        1.6041608551
  O         3.3169701449       16.6262942625       -0.1030445796
  O        -0.2544508765        5.4898107946       -0.2427704614
  O         3.9285175356       12.4593952055       16.0950407542
  O        14.1716815093       14.9761443851       12.0189432773
  O        18.1231543525        2.1792433212        1.2892999465
  O         7.1152623865        0.9553333129        7.8631301467
  O         2.4909043863       14.5496550336        1.3987722693
  O        18.7702365038        4.5823937061        2.5157647427
  O        12.2537617620        8.0451488876       16.5401642771
  O         8.4707860712       -0.4735488375        2.3914550392
  O         6.4056929376       18.2163518932        9.4975489538
  O        10.4383073588       10.8953758655       16.9261878950
  O         3.7272423530       -1.3020784823        7.4521491417
  O         0.0802121657       11.3599127910       -1.7184717112
  O        12.7826151993       17.1311727236        4.6213353301
  O         3.1580260069        3.5273969171       14.8049406762
  O         3.0978833270        1.8737903881        0.5991456193
  O        13.8559132399       13.2120268345        4.5149654694
  O        18.1914148944        2.6591753387        6.1568049238
  O        12.4044303747       14.8120117285        0.4205159126
  O        18.9702156373       -0.4227401276       11.6347624837
  O         5.8519616622       11.3911405849       -0.0141870942
  O         8.8208427793       -1.0056538093        4.9415944241
  O        16.4347937713        0.7432120705       11.1851828740
  O        15.0975052583       -0.5461591950       -1.7823600767
  O         6.2299852437       -1.1754562078        6.5987673413
  O        10.1699495572        0.9870266943       -0.7177506024
  O         4.3342814056       -0.6971291183        4.7876651743
  O        17.6269881190        5.4569322396       14.3271598639
  O        10.7533501386       17.4378489900        6.3339158638
  O         4.9362909787       13.6529126683       -1.1154187061
  O         2.4773613907       16.1664800971        3.9084144071
  O        13.6050251041        3.5833742719       -1.7371845830
  O         5.5068142666        6.7768466499       -0.0227333123
  O         5.8203694649        1.8763316670        0.4251177244
  O         1.4419084207        9.3187542894       13.1977311224
  O         8.4256526436       -1.3577237140        7.6536466664
  O         3.7527685057       14.6301323945       10.8555926841
  O         0.9829911525       16.9996483284        1.1034032914
  O         1.8588884735        7.7922429766       17.1309114721
  O         9.7545890317       13.9531701452        0.3987999834
  O        16.8307768953       11.1064068290       10.0087512172
  O        17.6065089882        1.4370302700       16.3232989869
  O         9.9011956950       15.6206337817       15.4828259797
  O        14.6950634303        1.3122248075        7.3494805564
  O        11.0426360221       17.8262422085       14.7585405762
  O         8.4239303645       17.3364660478       14.2296400821
  O         6.9804054636        6.7992951103       -2.3705424629
  O         3.9288423320       14.1322719313        3.7419817585
  O        10.2920026636       16.0998547735       12.8648275980
  O         2.1025380448       -0.7287819787       -1.4364450849
  O         4.0059680058        2.1682150911       12.6948225471
  O        15.7197675266        3.1183549902       16.0290662741
  O         3.4017591043       18.0492500840       14.7387735396
  O        17.2930706960        0.5048286483        5.0039565641
  O        17.3436062181       -0.7725149562       13.8032920755
  O         8.4615420977       10.8211061605       14.9733897366
  O        14.1709872040        5.5329236329       -0.0994482569
  O         5.0820181952        2.8415627745       10.2669786285
  O         0.3136831250       17.1834958055        8.5393912121
  O        13.0320077325       18.4412703355        6.9771794418
  O        11.9686738152        5.8210436170       -1.4938279582
  O        14.6648738197       -0.8869595614        8.8860145074
  O        16.8467987155       16.9605607128       15.9173104703
  O         8.1013423347       16.0465198794       -0.2209591564
  O         0.7486461997       13.5107890027       16.1492573047
  O         5.5647808376       10.8647521343       16.7268180175
  O         2.0985377927       16.6814983852       10.3785272688
  O         5.1291202386       16.4118824401        2.9224316345
  O         1.4615309487        2.9442925420        6.0039330782
  O         1.8629606998        1.1263136990        9.4448419492
  O         8.4017057058        4.7912106182       16.3527263170
  O        15.1539656041        8.0689639360       13.3673904694
  O         1.3863802010        8.1078822374        5.0360338093
  O         6.0560159365        3.6844014919       17.0332358988
  O        11.0218249923       14.4460036900       17.4286355302
  O        15.6734457987       15.1320097546        4.1138633377
  O        17.8255043937       12.2327838200       15.7762121220
  O        -0.0402585773       10.5751354443        8.9121266834
  O        11.2831348290        5.7866497393       15.3684195873
  O         1.1175475071       18.1587991308       13.6991698174
  O        18.8726187394       12.6199075287       10.6071325434
  O         1.6613335883        7.1871894571        0.1560272998
  O        18.4312711822        6.0731676462       16.5789450769
  O         0.2570389396        2.8086770872        8.2782592124
  O         2.7143638348        7.6059612632       14.8397384059
  O        -0.2169810626        0.8119966688       14.1136692967
  O         1.1153228186       12.0252777417       12.7589660451
  O        14.5916587535       11.9346544881        0.0307112202
  O        10.8582476333       18.2578083038        3.1381496092
  O         1.5443597567        6.8512319555       12.4954644640
  O        -0.0379296765        0.5939648671       -0.3990214210
  O        18.8655903406       15.5443568612       16.8363745874
  O         0.4216574649        0.1935588496        7.4521925565
  O         7.4966636372        0.3662453497       14.0201851510
  O         9.1886750980        2.0283551934       13.0123595024
  O        18.5549016789       16.7783906728       12.9042381285
  O        16.7465281434        6.2495385246       -0.7654317089
  O        15.1736442489       -0.5086393273       15.0599763117
  O        13.5653817664       12.6450518140       16.9578627179
  O        15.9584500734        1.9143174398       -1.0033467562
  O         0.0186549567        7.5900420150       14.5984997120
  O        17.5992270758        3.0511367736       13.1471457951
  O         1.4279880214       17.4303797784        6.0920708377
  O         2.6182560806       12.0873748312        2.6005411293
  O        13.1663647573       10.1352921412       -1.4211740170
  O        16.7445025015       15.2466935559       11.7732805538
  O         4.5381564795       17.6755554134       17.1633544473
  O        14.3034796854       16.5652552526       -0.1218579170
  O        11.8834193080       12.2657281955       -0.3329495128
  O         7.3860333073        3.0686083246       14.7089171828
  O         6.6790119942       17.8764738169       12.2068464575
  O        17.1275276120       12.0301368668        0.8899609154
  O         2.8088237358       14.5909549763       16.9154833600
  O        16.0138016324       16.6348829384        1.9227588356
  O         2.1289261243       -0.5747749508        2.8181043818
  O         0.5658440076        4.7743743999       13.5185311761
  O        15.0038153575       17.2802268161       11.0372264827
  O        16.8710463055        7.8461866976       15.3837292382
  O         8.0342003023       11.0623982760       17.7183514371
  O        16.5180789343       10.1580217904       14.3540902556
  O        16.9493371070       16.3433586870       -0.7498661503
  O         0.8570401150       11.6050969160        0.8335919799
  O        19.0291162275       15.6340882166       10.3988705321
  O        19.4618870475        5.0871028833        6.8028455993
  O        16.8179634088       -0.0962295431        0.4633378363
  O        18.2519896414       -1.6227237447        6.4656571295
  O        18.0526129541       12.7086549561        8.0580209824
  O         1.1282453180       15.2033270644       -0.8119890095
  O         2.6758182748       12.2421067024       -0.9702981916
  O         5.5430417627       10.5864943696       14.3813836680
  O        11.1751950581       15.4653494770        3.4474616715
  O         6.3647743889        9.0333750097       -1.0756609200
  O         3.1760061197       11.3243632548       14.0406864197
  O        17.1399929713        2.8170904878        3.7311199100
  O        12.8146009307        0.0231120669       16.0656620413
  O        -0.6812603950        8.2580629568        3.1872653025
  O        15.7997197697       12.7969962539       14.1758990027
  O        15.1000999386       12.9177569275        2.3512473061
  O        13.4089309747        4.2470966142       15.0515320232
  O        11.5298341159        2.4219599881       11.6066173912
  O        19.2102505627        3.1861785399       15.3198566880
  O         9.7419116959        7.0318560230       17.1320877637
  O        10.9852984765        3.7283995454       13.8432585135
  O        15.6189584065       16.6577334574       13.7152838180
  O        11.6830854274       17.3353566148       -0.0067514314
  O        -0.4871742391        8.6393162184       -0.6797967268
  O         0.1385499709        1.6751061044        4.1297483529
  O         5.0834781006        4.5770688678       13.4162279271
  O        14.5026768751        9.3244109625       15.8423988406
  O        15.9096456521       14.3543890237        0.1988685525
  O         0.8565713695        1.0553979802       16.5877626356
  O         1.4136660243       14.7320862309        8.6884889169
  O        12.0374760079        3.8844077968        0.4286272450
  O         0.7421749991       10.9176961311       15.1667695395
  O         8.5692534700        5.3787461779       -0.4657321129
  O         2.7140088888        1.3591287206        4.3512571601
  O         1.6888808617        9.5223757802        2.5993607189
 Na        10.7552225465       11.4549657644       13.8591188506
 Na        18.6176455066       13.8505561483        0.7213822541
 Na        14.5519062129        3.0759164870        0.6857127443
 Na        17.5306358266       10.4477783042       -0.5640769579
 Na        18.5216981329        6.7895479571        5.3122861520
 Na        11.8700741652        0.1602508647        0.9072476996
 Na         6.0908195009        4.3787782467        0.0925615753
 Na        12.4311921171       14.9775233097       13.2599699258
 Na        -0.2668411629        5.9092600485        8.9042775600
 Na         0.6742354652       13.5358504761        6.8929795028
 Na        13.2907004804       10.0749399834        7.4461510931
 Na         4.9672941199        5.1335777571       15.5970129861
 Na        10.6872039059        2.9965560764        2.9268059961
 Na        14.0958719195        0.2237376054       11.2660036369
 Na        16.2934446212        1.3942343868       13.5650359972
 Na         0.8208735474        9.6288328981        6.8029432223
 Na        10.0570927625        3.4968694706       -1.1148012150
 Na         3.4959227676       13.6166973052       13.9330339940
 Na         8.2863690654        6.3189398325        7.3287759771
 Na        17.6514885915       14.7664347418        8.6960689203
 Na        -2.9516398106        9.8943264129       12.0627229487
 Na         9.1779165868        5.3002687894       14.1198170517
 Na         3.6978719669       15.8049748023        8.3410046725
 Na        15.8170821852        5.9848427596       12.3546629323
 Na         5.8727656848       16.7065482799        0.7403966933
 Na         3.3748616734        9.9937595866        4.3436510109
 Na         2.8038664400        3.4018215579       10.0954180690
 Na         1.1595614688        2.6903300672       -0.2873816689
 Na        18.1570412618        7.1443824901        1.2937714230
 Na         1.9400477491       12.7027735194        9.4665648047
 Na         6.7376857926        8.0301711575        1.8291336359
 Na        14.4524483157       14.8588124603       17.0189388430
 Na        13.3855342848       15.4700986817        9.4295652170
 Na         7.5651690210       16.7862303290       16.9317848163
 Na         7.1747535460       -1.9492911282        3.4426981427
 Na        12.3218750800        1.6072488710       -1.6762647179
 Na         6.1552801145        0.6363985435       -1.4998460914
 Na         2.5058141887        6.1208492861        5.9802183036
 Na        15.1545163104       12.9861104434       11.3541615491
 Na         6.4055089954       13.7304999598        3.3042495056
 Na        14.6760524901       18.6106407991        2.8810050415
 Na         3.5693055983        7.4013033642        1.2007232898
 Na        -0.8612085213       13.5753433125        4.1962758240
 Na         2.6260008358        1.3923132452       14.7434958642
 Na         3.1511007340        0.8592052085        7.5833454148
 Na        13.9182365132       12.1065840079       14.9895586267
 Na        14.9526885949       15.7044466351        6.1258117029
 Na        16.5233092424        2.5999358325        7.9823832730
 Na         9.3789617551       -1.6019271048        0.1235766732
 Na         7.1890380289        1.1432241485        5.2966588607
 Na         7.9953499313        1.1312029394        0.9293044583
 Na         3.9642886433        2.7189561380       17.1852040696
 Na        18.3720933348        3.0143222982       11.0590792529
 Na        12.5879186441       13.7199042545        2.6614952341
 Na        11.4709691470       16.7574229280       -2.2165367639
 Na         7.4705001801        8.9035601533       15.5982805209
 Na         2.0191990895       -0.3888407422       11.2108851122
 Na        17.5540478332       10.5086367906        3.1354809054
 Na        17.5785619147       14.6248398013       14.7835279096
 Na         1.5343596536        4.8292595764       15.8155261483
 Si        -0.3358250701       12.5855552805       12.2354743280
 Si         3.6050923139       18.0911439855       -0.9497534732
 Si         5.6926200789       12.9997564604        0.1030372570
 Si        15.1444503865        6.4124048008       -1.1701863744
 Si         0.8728824313        8.2014024843        3.4630561226
 Si        11.8138132524       16.9000557300        3.3403266560
 Si         5.6645474998       18.2657475160       10.9224792104
 Si         1.4193040820       11.2549294883       -0.6586984644
 Si         1.1328945497       16.3616603197        4.7908744298
 Si         3.5357024535       13.2815570228       17.4145121523
 Si        15.2839146483       16.0594425595       12.1790347061
 Si        18.1954283064       11.6298581982        9.3646716677
 Si        18.2920708594        0.5848648921        0.9388013348
 Si         9.0588486646       11.4339745065       16.3565593227
 Si         6.9589813354       -0.6347076715        8.0193216587
 Si        15.8098316188       15.9846709893        0.3872304463
 Si         0.4461434258        1.1948537773        8.7312716639
 Si         0.6090225409       -0.1411995160       -1.6211386917
 Si        18.0973144501        6.8427891304       15.1991198097
 Si         9.5282707258       -0.3263421035        3.6004560837
 Si        15.3148903443       13.4061616046        3.9329221469
 Si         5.8154004387        7.5025788454       -1.3950474079
 Si         4.4944457214        1.2124081229        0.9169189628
 Si        10.8413989921        2.2731695165       13.0303856956
 Si         5.1728030675        1.9536794825       11.5796467637
 Si         3.3056645499       16.0491203647       11.4000434226
 Si        16.7436334973       16.0297110894        3.2702935449
 Si         1.4404539329        5.5760303112       -0.2683261703
 Si        11.2114721359       13.8603562590       -0.4158035447
 Si         1.9755330276       15.8231762881        0.4529685594
 Si        13.4086529182       11.7865394478       -1.0959883521
 Si         1.0536336020        8.3898667953       -0.8124570766
 Si        17.9786426469        5.3526100137       -1.4355574068
 Si         8.2884303439       14.7620701863        0.6359108562
 Si         1.1831125140       15.0331135192       16.8689242980
 Si        17.9033948265       16.7400018508       17.2811713660
 Si         3.4406976855        0.0631101782        3.6192472412
 Si         7.1284075176       18.1668041009       13.7406922005
 Si        17.6795683165       -0.0506527620       10.6359450769
 Si        14.0948642831       -0.9974171524       16.3845989602
 Si         3.3665167753       13.5274944447        2.3116348786
 Si        12.8416373137        4.6988743444       -0.6525148839
 Si         7.6374083853        1.8807542304       13.5695488211
 Si         4.0592360317       15.8210770021        4.0364880311
 Si         9.1569341050        0.7351174497       17.4397742071
 Si         8.3548793385        5.9638653264       -1.9323326338
 Si        12.3890845269       17.0773149693        6.2551930292
 Si        16.2965326214       17.7977069757       14.6712720203
 Si        17.0314612338       -1.0604679344        5.5642885556
 Si         1.5454103051        2.4777297786        4.4323261169
 Si         9.9100813954       16.7846582227       14.2511671259
 Si         4.6619029352       -0.8844281287       15.6676082422
 Si         7.4620352075        3.3693999735       16.3328059497
 Si        14.4683441896        4.1817932661       16.3505335674
 Si         9.1144184469       -1.9494322280        6.3168813496
 Si        18.3201928726       15.5552718272       11.8556382364
 Si        15.4840077314        0.4220514496       -0.4151963165
 Si         0.0829519299       12.0293941249       16.1656437809
 Si         0.8208112151       17.9925271322        2.4503361141
 Si        15.6583296117        8.7246667225       14.7436657833
 Si        11.7378736139        4.1760333453       15.2670910432
 Si        18.0069180055        1.9149128908        4.7377637228
 Si        18.5648805182        4.0100532763       13.9393960451
 Si        15.6797765916       17.3236725740        9.4854762942
 Si         1.2912772821        5.2506215499       12.1185372661
 Si         1.6995948698       10.8789729349       13.7102211421
 Si         0.1133609248        3.5110885332        6.8017517859
 Si        19.0446256188        1.5721332332       15.5176267736
 Si         1.4076595892        7.7908856336       13.8068765218
 Si         4.3793201869       10.9215345691       15.5147758585
 Si        16.7831832735        2.5212277272       17.1472020703
 Si         0.3491468393       -1.3655125156        7.0802626761
 Si        17.5395419311        3.4360665259        2.2717231466
 Si        14.5096637301       -0.2690916656        7.3691923225
 Si         2.1403277349       17.0428016309       14.2930305268
 Si         4.6011196271       -1.5299504792        6.1689432580
 Si        10.2832562485       14.0909652361       15.9364989236
 Si         6.4530533368       10.6641923639       -1.3741984023
 Si        -0.4545550058       18.4940083636       13.2242276041
 Si         0.9971596718        4.9701343494        2.5516550613
 Si        12.7647755014       16.4624804679        0.6148701748
 Si         3.1123414104        8.1979167397       16.3067739175
 Si        16.9369715210       11.6951820668       14.4101222142
 Si        15.7226609487       12.7444347119        0.8981361351
 Si        11.3469129569       -0.0184870568       15.1968583764
 Si         3.6945839494        3.7390518159       13.3143698239
 Si        11.2693902260        6.6977946675       16.7352884403
 Si        13.5828528667        8.8125888635       17.0559908908
 Si         1.1700366313       11.2174325727        2.4084929225
 Si         0.9191458821       16.0465422340        9.4705887409
 Se         8.2279271321        4.8001367446        9.9151489438
 Se         4.7092167329        7.0946450946        3.9385641261
 Se         5.5009404617        3.6802942102        6.1674236329
 Se        10.9567094329        6.7292899783       11.9926073365
 Se         7.9361629599        4.3143454467        2.4046425713
 Se        11.0635131148        1.1676829237        8.3151486865
 Se         3.8128270014       10.7177567183       10.9669854192
 Se         8.9223656470        7.6328941253        4.9685962804
 Se         2.4590515503        7.3138307824        8.9871704247
 Se         8.6774853989       10.8977860075       11.7071628884
 Se        12.2761570859        5.6023351500        3.2402826886
 Se        11.3735898065        5.3501849553        7.7375012151
 Se        13.8429193571        8.2381207973        9.4689882248
 Se         6.8464045510        7.3249341350       13.2255147026
 Se        13.3056954332        1.7531408356        4.1927877499
 Se        14.9721445378        3.8528083645       10.1239342303
 Se         6.8568992498       11.0602024694        4.5742265561
 Se         3.0668869114       11.5894324693        6.9881240556
 Se         6.8448520277       13.0879930287        8.6352245908
 Se        10.1319014184        8.7241957429        1.5299356236
 Se         6.2923682764        8.2845858583        8.2472531073
 Se        10.3252867487        9.9282493155        8.3196317679
 Se         6.6652975774       14.3944437476       12.8156436879
 Se        15.2250504979        8.1214241295        2.1839794457
 Se        12.6419879812        9.3629067413        4.9764389745
 Se        17.6557323278        7.7623571901       10.7994044771
 Se        13.0671386705       11.0538525254       12.2701568466
 Se        15.5698686453        5.7276650999        6.2928419854
 Se         8.0240634805       15.4660882297        6.0890433903
 Se        10.7275069530       14.1650339342        9.8223653834
 Se        10.4957244708       12.7066791561        5.5939767165
 Se        14.2924083653       12.5848234118        8.3478448336
 Se        17.0423194523        9.3313759928        6.3500794703
 Cd         6.2217588577        8.4258880024        5.5338784445
 Cd         6.6511296343        5.2645498653        4.3336590262
 Cd         6.5014603574        2.9851001789        8.4927225405
 Cd         6.3749256154        5.0715122371       11.8284673439
 Cd        11.3143463046        1.3974625315        5.7128286978
 Cd        10.1525890169        3.1075097071        9.9576652479
 Cd         0.5449749803        8.7573445179       10.1730439329
 Cd         9.2483295287       10.3228827812        5.6627976431
 Cd         3.8696162923        9.5149237252        8.5151766262
 Cd         5.2715492825        9.2043063272       12.5077028491
 Cd         9.6958866236        6.0787038319        1.5161200980
 Cd        13.9604091114        3.8453784456        5.4249591325
 Cd        10.7930225814        7.5562230021        9.2947723677
 Cd         7.1409141377       12.0475997087       13.7855746350
 Cd        14.9208007639        5.5806943750        2.6353251906
 Cd        13.3225415479        2.4568437015        8.7139079331
 Cd         5.5215347612       12.2074848373        6.6608950870
 Cd         5.3084082134       12.8616902420       10.9539128391
 Cd         8.9811924305       14.6999930723       11.6447872886
 Cd        10.3242363964        9.7625481663       -0.6484883870
 Cd        11.5118797157        7.0385539494        5.5675886245
 Cd         9.0287803029        8.3922445716       12.2171763681
 Cd        11.3488180931       11.4821398099       10.3031625340
 Cd        12.6274372424        8.2495889661        2.4190766276
 Cd        14.9968251061        8.0574193183        5.0668656058
 Cd        12.9938267668        8.5413453649       12.1858410103
 Cd        16.3628546332        9.0230799840        8.8350911577
 Cd        13.9062837992        5.6573480624        8.4908749132
 Cd         9.2489273725       14.3722186250        3.8984556171
 Cd         9.2543882864       13.8544716462        7.6383871895
 Cd        12.8230007466       13.3822685418        6.3969621553
 Cd         7.6715783484       10.5147625479        9.2342310164
 Cd        16.3818251945       11.8744041873        6.7744994582
