426
 i =     5700, time =    11400.000, E =     -8405.8584673408
  O         8.2926326070       -0.6499375983       17.8097562507
  O        14.1548618440        0.4699403355        0.6172754983
  O         4.7576334517       13.0922099410        1.3596753159
  O         2.7448194385       15.9645614412       13.3738633137
  O        11.3402028293        3.2478653087       16.4636293946
  O        18.1835575820       15.0904949377        2.9618913080
  O        17.6883818103       11.6986704353       12.9782402893
  O        11.3843832961        0.9547972832       13.8909666169
  O        11.2329984627       13.2677887070       15.0923373403
  O        -0.4749425914       -0.4467090954        1.9191102798
  O         2.6522592686        4.1436383994       12.6696591793
  O         8.9069605255       13.1725542931       16.6163973948
  O         4.7527992589       16.2972939103        5.5303592140
  O        13.5223222994       16.8978912444       16.3166540884
  O        18.3204112346        1.1451695047        9.8311208477
  O        16.8843477654       17.2687024853        4.2201961215
  O         5.8819482399       17.7760669236       14.8198451756
  O         4.6136107311        0.6279313715        2.4386047178
  O         1.8929702824        9.6602960591       -0.4716501652
  O         8.2219093927       14.6046363541        2.3623479506
  O         0.2924398851       17.2642976939        3.8269398917
  O         1.1333937142        6.6087572041        3.0569993611
  O         8.2445249468        1.9756953028       17.0398512090
  O         9.8559698850        0.9300166748        4.3102694354
  O        12.7670989614       15.5532775472        7.4158603663
  O         0.7408028452       15.0444066811        5.5365458565
  O         4.9461646337        0.2355590245       11.1904275884
  O        18.7302540978       17.8791379218       17.2221582296
  O        17.4784316797        3.7736011847       -1.5067787111
  O         6.7862764643        1.9302003714       12.2463323423
  O         3.5208066725        9.5717802061       15.7112914387
  O         7.2598859544       13.1346652589        0.4920683043
  O         1.5054118427        4.6546510504        1.3772990785
  O         4.6136419067        7.3798463107       16.8036111079
  O        15.7076805000       16.0786821135        8.6856348803
  O         1.4741377537       16.1577793254       15.6867614568
  O         4.6898251650        0.5261360241       15.9353170078
  O        15.4293634556       18.1482261034        6.1946108225
  O        14.9385229061        5.6613713066       16.6591908504
  O         1.5597196815        4.0679120101        3.8429210656
  O        14.4605507667        7.8664220838       -1.1307134224
  O        -0.4297027197       14.1749349478       12.8150148562
  O         1.9979041077        4.6656759329       -1.2261199039
  O         0.2810048110       11.7652849598        3.4127536906
  O         4.2964978732       -0.5068658240        0.0524776228
  O         0.6986908080        4.5335596630       10.9293836737
  O        10.1692652273        0.3963365930       16.2102657768
  O         4.3963071223       17.2703479672       11.6351541878
  O        16.6996831702       12.4364599647        4.7356322368
  O        13.0394698972       16.8295872616        2.2160653270
  O        17.1971164798       -1.3298315594        9.8606706854
  O        16.1840973991        3.8920053776        1.6124671045
  O         3.2824289008       16.5784496837       -0.1950142922
  O        -0.4171230446        5.4705064805       -0.0694622756
  O         4.3171389805       12.3295289694       16.0514372141
  O        14.2557860183       14.6640989203       11.8031686857
  O        18.1515244036        2.0137174517        1.2014246346
  O         6.8659268434        0.8718369168        8.4269454401
  O         2.4480031768       14.6803148959        1.4917636651
  O        18.5611173745        4.4676997075        2.7358137982
  O        12.2631719410        7.9715592692       16.6573432396
  O         8.6627273531       -0.6980283867        2.4911449602
  O         6.2444547513       18.0025787778        9.5592723481
  O        10.3385827164       10.9504357328       17.2021352426
  O         3.8041918092       -1.5229667797        7.4304463084
  O         0.3441234749       11.5759684162       -1.6754335713
  O        12.8284121859       16.5981410144        5.0044169819
  O         3.3937316715        3.3931833691       15.1225191713
  O         3.5332050776        2.0538521377        0.3463626992
  O        14.0276073837       13.3026706271        4.9378698687
  O        18.2524827522        2.5867674153        6.1422760499
  O        12.2468560387       14.6967368899        0.6224572637
  O        18.8199246089       -0.3723904496       11.7732188673
  O         5.6130711777       11.2473583504       -0.2331089547
  O         8.8869238955       -1.2186510962        5.1231730937
  O        16.3570697703        0.8415098328       11.4202616263
  O        14.9155218091       -0.5338011109       -1.7905879488
  O         6.1354360710       -1.0146320738        6.5540648674
  O        10.1778457251        1.2367536323       -0.6549972031
  O         4.0252232146       -0.5866080382        4.7514171383
  O        17.6535379665        5.6150543281       14.4472779639
  O        10.6403435143       17.1048732715        6.7667716948
  O         4.9939793757       13.6855755687       -1.1105678898
  O         2.6092098559       16.3733970455        4.2701294143
  O        13.6442388167        3.6871503548       -1.7007684983
  O         5.4081612692        6.5773883475        0.0113599246
  O         6.1330806188        1.4224404035        0.3167516190
  O         1.6448168666        9.2075955350       13.2789980059
  O         8.3263628906       -1.2870276448        7.8724678676
  O         3.6564809644       14.5430179139       11.4466572744
  O         1.0492240477       16.8260396075        1.2549747546
  O         1.8987597848        7.9516354148       17.0863737769
  O         9.7780991676       13.4789522433        0.4369548126
  O        17.1528453372       10.8596909642       10.1785653878
  O        17.4743943137        1.4513619356       16.3976688568
  O         9.9300545458       15.5653395441       15.7791124028
  O        14.5726942040        1.2118395134        7.1601815239
  O        11.0287410719       17.6698655296       14.8714995784
  O         8.3109569223       17.0917835279       14.2596899869
  O         7.0731900578        6.8650824532       -2.1756979935
  O         3.9576577121       14.1992943732        3.6063292767
  O        10.4109823612       15.6362844122       13.2333911465
  O         2.0141653608       -0.9991086103       -1.6436803448
  O         4.1482289268        1.8965802401       13.0446970516
  O        15.6302331552        3.0903983857       16.0464895643
  O         3.2658145704       18.0849391040       14.8400090873
  O        17.4542552375        0.2987703543        5.0230676099
  O        17.3194154981       -1.1001246331       14.0336713134
  O         8.5445189067       10.8849800345       15.2571236798
  O        14.0263775165        5.5056492295       -0.0111617845
  O         4.8907290853        2.8553545587       10.5193369924
  O         0.7101613189       17.2250627637        8.6713569675
  O        13.0284632067       18.2011896830        7.1092258443
  O        11.7297077389        5.8055137267       -1.2276742179
  O        14.6761151917       -0.8388392101        8.9158453439
  O        16.7450123883       16.5714784516       15.9514262258
  O         7.9531906418       15.5789930795       -0.2301928404
  O         0.7998232473       13.4613715613       15.8385828439
  O         5.7909494248       10.3585998325       16.4602626054
  O         2.0792033738       16.7038200937       10.8112868461
  O         4.9926860488       16.5219329220        2.8076805145
  O         1.5623001297        2.6397809107        6.1286834743
  O         1.7590422017        1.3412495960        9.7131076363
  O         8.5254172373        4.7364632100       16.2849354972
  O        15.0744342492        8.1023164697       13.4731105629
  O         1.1488985016        8.3567205409        4.9788746949
  O         6.1966140255        3.6064156849       17.0750889385
  O        11.1052403291       14.2694521789       17.6447520924
  O        15.8154275602       15.0429671668        4.1501572186
  O        18.0003963453       12.0126930489       15.6691376523
  O         0.3878069318       10.6287732964        9.2017240862
  O        11.3410281663        5.7467676171       15.4025211492
  O         0.9838411050       18.1698324915       13.9168706849
  O        18.9293678515       12.7908900978       10.7862219898
  O         1.6898764646        7.0169840357        0.0355607283
  O        18.5354954221        6.0720312206       16.8257577150
  O         0.0698213159        2.9230407352        8.3220903462
  O         2.8382217236        7.3416419292       14.7535228161
  O        -0.5833186572        0.7028825126       14.1431981453
  O         0.9243039312       11.8964448507       12.9376519727
  O        14.5404970715       11.8069947205        0.2955886286
  O        11.0532681636       18.0610122024        3.4232876879
  O         1.6648005871        6.6342308257       12.5884562281
  O        -0.1175024715        0.5184499385       -0.5939884725
  O        18.7684600526       15.1426631119       16.7760759645
  O         0.4156038545        0.2843537597        7.6676909873
  O         7.7341753656        0.2729755834       14.2065805778
  O         9.1388393136        2.2203098347       12.8774108837
  O        18.8571954605       16.6912710857       13.0115992454
  O        16.4946525642        6.1938494626       -0.7011429685
  O        15.0769637013       -0.7492866443       15.0707421192
  O        13.8165358105       12.4623634713       17.1317675035
  O        15.7040099550        1.9090377788       -0.9577968406
  O         0.1492506727        7.4718526730       14.7311155988
  O        17.1592090005        3.3910271452       13.1467506823
  O         1.2522568508       17.5176432445        6.1312299675
  O         2.8349174738       12.0075651030        2.5871000645
  O        13.0452665656       10.0346201327       -1.2188463431
  O        16.8150575133       15.1746076855       11.7399143803
  O         4.5703704380       17.6389397454       17.1447137211
  O        14.3056579453       16.0862560223       -0.0044220333
  O        12.0570039458       12.3890314672       -0.0168082185
  O         7.5474319987        2.8988881864       14.6371622505
  O         6.7026698328       18.0669276435       12.3023430488
  O        17.0170294547       11.5952296995        1.2603664036
  O         2.8162895630       14.3405632821       16.8288963979
  O        16.1714928939       16.4256522395        1.7791021920
  O         2.1424738337       -0.5967066782        2.6245929755
  O         0.2859384168        4.6787329701       13.5157698054
  O        14.9022547794       17.2343538553       11.1276066899
  O        16.9185033493        7.8350101795       15.5060594973
  O         7.8961340408       10.9112902229       17.8734896716
  O        16.3878498871       10.1614352386       14.4707805000
  O        16.9485592789       16.2467439980       -0.8398939302
  O         0.9053463328       11.6063200621        0.8580861388
  O        19.0721814660       15.5960417413       10.4890009757
  O        19.6711147497        5.0768712254        6.5612417093
  O        16.7995299751       -0.1142457447        0.4153718681
  O        18.0939424710       -1.5431636711        6.6914062125
  O        18.0668294180       12.5457237455        8.2599962084
  O         1.2597963298       15.2433074699       -0.9683307973
  O         2.8529894443       12.0343298471       -1.0770988584
  O         5.6257797553       10.5674335879       14.0522036087
  O        11.2273117670       15.2442853459        3.4505031549
  O         6.2568356725        8.8318505632       -0.7883733704
  O         3.1678147792       11.3811152298       14.1377508200
  O        17.1682217454        2.4273476798        3.6622936512
  O        12.7425380071        0.0387183911       16.0545210379
  O        -0.7633951451        8.4414389421        3.0134763480
  O        15.8938624174       12.8741913853       14.4681500261
  O        15.0071547829       12.9240273286        2.5659092290
  O        13.4410409121        4.1659493980       15.0315619274
  O        11.4214419190        2.1077848167       11.5192581572
  O        18.9107202225        3.1581012099       15.3130532961
  O         9.6779093639        7.0064241692       17.0060422412
  O        11.1741325210        3.6091526221       13.7398403887
  O        15.2666318588       16.4073900603       13.5998307093
  O        11.8848729744       17.2784628925       -0.2290144865
  O        -0.4269601951        8.4618848417       -0.7783927551
  O         0.2600907423        1.6961986726        4.1299178696
  O         5.2268676341        4.2684162996       13.4225983024
  O        14.5245095849        9.1208574294       15.9881749301
  O        16.1047809578       14.0871798282        0.3774569001
  O         0.5840725632        0.8701947999       16.4700328267
  O         1.5888019076       14.7344348617        8.8509707691
  O        11.9954042572        3.6370419917        0.4029396086
  O         0.7957791634       10.7345639099       15.2659850622
  O         8.7239346082        5.3190872304       -0.4774688534
  O         2.8364501110        1.6960020308        3.8736276206
  O         1.6312342991        9.5069854179        2.6141744964
 Na        10.7454217995       11.1105209731       14.5742901507
 Na        18.7196085126       13.2796645364        1.4232519443
 Na        14.3990011373        2.6902439465        0.9321613236
 Na        17.5044189259       10.3592188719       -0.5487990980
 Na        18.5016126470        6.7969941824        5.3223987961
 Na        12.0207892206       -0.2986838369        1.3189440935
 Na         6.2002481030        3.8672917485        0.1748309741
 Na        12.5387698389       14.8064936832       13.1642203752
 Na         0.2820939669        5.7742687527        8.9891266393
 Na         0.6918563171       13.4091974556        7.2261988895
 Na        13.5086940632        9.7123181346        7.8405587499
 Na         4.9797384437        5.2574657919       15.4485480296
 Na        11.1734884903        2.9719005212        2.5951882044
 Na        13.7808814212        0.5780892023       10.8822836755
 Na        16.2863243062        1.4157173420       13.5768273448
 Na         0.8206318384        9.3706978795        6.8771276590
 Na        10.0158978273        3.5724613220       -1.0883134801
 Na         2.9587054045       13.6868257478       14.0373116688
 Na         8.2646979792        5.9844270187        7.3393602136
 Na        17.3566173635       14.5646572597        9.2543059043
 Na        -2.3838653727        9.4906408685       12.0818258793
 Na         9.2184784021        5.3326545853       14.2033536091
 Na         3.0224188455       15.5460754198        7.2008790216
 Na        15.9391816462        5.6452353784       12.2121324610
 Na         5.5155618547       16.1540391207        0.5330841255
 Na         3.6481860077       10.4271676356        4.1794977335
 Na         2.5438117410        3.3431422468       10.1022826863
 Na         1.4239107005        2.3297049069        0.0564199400
 Na        17.9666593927        7.3850093538        1.0075966507
 Na         1.9824242029       12.9336180993       10.0459782110
 Na         6.5885434189        7.9685076826        1.8162390221
 Na        14.4346625897       14.8342809665       16.9820585228
 Na        13.6721874284       15.2138521690        9.4991622137
 Na         7.8862959092       16.4749073342       16.8731640907
 Na         7.1237751750       -2.2669944751        3.4482912058
 Na        12.1932914298        1.4814429293       -1.3919556859
 Na         6.2938825261        0.7139964415       -1.8031705880
 Na         2.6020087998        6.1084281262        5.8450109575
 Na        15.3999239778       12.6007822619       11.6646253995
 Na         6.3859694254       13.5416113009        2.9613789063
 Na        15.2776466701       18.6306412310        2.3739270424
 Na         3.7708037388        6.5204282416        1.5348079651
 Na        -0.7056822620       13.5825811201        4.4664521799
 Na         2.7124495768        1.0069738321       14.9266143919
 Na         3.1750798975        0.6943168345        7.6105714574
 Na        14.0180622537       12.0268563526       14.8806438905
 Na        14.9312394195       15.6767045210        6.1185806997
 Na        16.6806126212        1.9085874895        8.0504559635
 Na         9.1468810305       -1.9776398829        0.4328128803
 Na         7.5640346384        1.1566640043        5.9504337471
 Na         8.0746425790        1.1616060049        1.3664194204
 Na         4.1318798584        2.6774098194       17.2756396934
 Na        18.1064514843        3.3608945635       10.8437993798
 Na        12.5477772493       13.3796387695        2.9273195783
 Na        11.3435196565       16.8626522655       -2.3533772638
 Na         7.2375320472        9.0330602674       15.3796082630
 Na         2.4408970230       -0.3971311535       11.0398094664
 Na        17.5648712449       10.5785152670        3.4276235957
 Na        17.2803183651       14.5861045127       14.6663245051
 Na         1.5137327788        4.5637558576       15.8540706013
 Si        -0.4038092209       12.5943667317       12.3647789310
 Si         3.5160022897       17.9862684788       -0.9731105932
 Si         5.7233952327       12.8673094117        0.0582699847
 Si        14.9349728492        6.2816454450       -1.1983252044
 Si         0.7605538154        8.2758901959        3.4228256637
 Si        11.9499586096       16.7098056657        3.5478666885
 Si         5.6286045721       18.1412969807       11.0299482394
 Si         1.5596245355       11.2380771887       -0.5816098709
 Si         1.1412725926       16.4460087663        4.9314489869
 Si         3.6919440456       13.0515999369       17.3341746902
 Si        15.3097375375       15.8835052412       11.9898420782
 Si        18.4627869260       11.5880979533        9.4922713391
 Si        18.2509062776        0.4196766898        0.7031646958
 Si         8.9081504762       11.5163921140       16.7586697558
 Si         6.8168748752       -0.6623354379        8.1447126549
 Si        15.9148255271       15.7543138141        0.3348572874
 Si         0.3607612601        1.3617274424        9.0351271124
 Si         0.4912401272       -0.3874451606       -1.8353086218
 Si        18.1618417022        6.8185109393       15.3531706117
 Si         9.5776469793       -0.5157089338        3.8072414968
 Si        15.4031697584       13.3300342402        4.1383256909
 Si         5.7380973416        7.3596257114       -1.3176559394
 Si         4.6738252311        1.0011239771        0.7589017774
 Si        10.7518923905        2.1871231640       12.9864869467
 Si         5.2358835781        1.7709782982       11.7244404945
 Si         3.2706658901       16.0503798533       11.7760677462
 Si        16.9350326703       15.8581854776        3.2485898526
 Si         1.2865758250        5.4148925330       -0.1217045167
 Si        11.2486913016       13.7287314976       -0.2341798443
 Si         1.9437755860       15.7819646566        0.3863364646
 Si        13.3938218832       11.7248575208       -0.9042137369
 Si         1.1174577642        8.2448932971       -0.9077468028
 Si        17.8235471003        5.3407002167       -1.2340443163
 Si         8.3577363785       14.3407937636        0.7726140501
 Si         1.1940757819       14.8439361711       16.7086578527
 Si        17.8453839634       16.4991613371       17.1755666080
 Si         3.3949897489        0.1758716370        3.4301510294
 Si         7.1128737365       18.1445687099       13.8625164585
 Si        17.4857146364        0.0301484380       10.8230937302
 Si        13.9659599083       -0.9713913675       16.2882988388
 Si         3.3964727396       13.4521658027        2.1995721444
 Si        12.7509577862        4.5993147675       -0.6083096019
 Si         7.7392129925        1.7733401492       13.5442048628
 Si         4.1342163248       15.8367833738        3.9508769805
 Si         9.2154016385        0.6321063946       17.5693885922
 Si         8.4302350031        5.9279550203       -1.9599448834
 Si        12.3110540954       16.7962063975        6.5749276557
 Si        16.0717091722       17.4545813406       14.6084666628
 Si        16.9944679336       -1.1752487346        5.5500799725
 Si         1.6334520699        2.5211720620        4.5007168769
 Si         9.8968362539       16.5188210928       14.4265041855
 Si         4.6123415840       -1.0269074451       15.6938398712
 Si         7.5151916163        3.2622559149       16.2510862775
 Si        14.3849908786        4.0941770780       16.2681842098
 Si         8.9794637400       -2.0883722091        6.4967950957
 Si        18.4254995806       15.5232510632       11.9812783135
 Si        15.3227477116        0.3584433303       -0.4865074862
 Si         0.1417494478       11.9473351025       16.1661986905
 Si         0.6997880328       17.8878405138        2.4608526895
 Si        15.6322266161        8.7268211355       14.7942529112
 Si        11.7407067369        4.1563759817       15.2186189932
 Si        18.1433861596        1.7454062499        4.7562785352
 Si        18.2485111638        4.0983373991       14.0393205991
 Si        15.6978738568       17.4290829952        9.5880438596
 Si         1.3418559678        4.9614668988       12.2962935601
 Si         1.6981035019       10.7379910599       13.9397557780
 Si         0.2116433069        3.5195009269        6.7342031099
 Si        18.7800151374        1.5197541301       15.4997344866
 Si         1.5172944110        7.6195710492       13.8356873075
 Si         4.5074948861       10.8055452074       15.2414681623
 Si        16.6396293260        2.5714829250       17.2201278397
 Si         0.2489793548       -1.3324001691        7.3226672712
 Si        17.5020044703        3.2425826787        2.2434985667
 Si        14.4440473996       -0.3898546083        7.2744504984
 Si         2.0637037430       17.0356140572       14.4703628763
 Si         4.5924658247       -1.4862574923        6.0606156527
 Si        10.3388529726       13.9339242385       16.2115610523
 Si         6.3502194159       10.3764300850       -1.4076278536
 Si        -0.5259327272       18.4047159148       13.3963468839
 Si         0.7530786133        4.9928122729        2.8150737126
 Si        12.7680015423       16.2977241095        0.6266028075
 Si         3.2137541747        8.0548336050       16.2223565648
 Si        16.9531459661       11.7245476760       14.4856737256
 Si        15.7472714936       12.5422637165        1.1174243524
 Si        11.3235272367       -0.0261095099       15.1692779320
 Si         3.8329347549        3.4646526508       13.5953806649
 Si        11.2753114803        6.6104540461       16.8322187935
 Si        13.5678670427        8.8109288222       17.2477958047
 Si         1.2933614665       11.1639392455        2.4346959428
 Si         1.0933196640       15.9687102447        9.7018218188
 Se         8.1501874353        4.6064765747        9.7144060480
 Se         5.0184011180        7.0847354370        3.9601478107
 Se         5.0846613241        3.3722536926        6.1096900687
 Se        11.2458219761        6.5546944688       12.0177504938
 Se         8.5671069352        4.1644486589        2.8774416381
 Se        11.1718525384        1.0444341952        8.3388431330
 Se         3.9685748295       10.7292169976       10.9156376484
 Se         9.1699608236        7.6753489190        5.0345263114
 Se         2.7323800084        7.3753849833        8.9189982862
 Se         8.3998038179       10.6083953400       11.7034354830
 Se        12.3637336893        5.4968384213        3.1072812452
 Se        11.7262935706        4.9999326848        7.6003985939
 Se        14.2645077064        7.9138496681        9.8090695140
 Se         6.9066460642        7.1916368706       13.1437213498
 Se        13.4120032678        1.6788819253        4.0009088531
 Se        15.2310509840        3.6688520882       10.0008748638
 Se         6.5269228945       10.9315220571        4.1476796997
 Se         3.0766167255       11.4779869554        6.7438222337
 Se         6.8473075369       12.6720971621        8.5273133163
 Se        10.0911982532        8.6606056880        1.7052825941
 Se         6.2710628323        8.4127620743        8.0114914364
 Se        10.4538791372        9.4534532977        8.9866608027
 Se         6.6406781063       14.3425265094       12.7641790650
 Se        15.3480141669        8.2243862114        2.3288237159
 Se        12.8548708864        8.9568494395        5.3043869609
 Se        18.0922044816        7.3148880037       10.8415122606
 Se        12.9917985835       11.1005744315       12.6115700662
 Se        16.0380229850        5.4444954695        6.0160238784
 Se         7.9061053795       15.4577305332        6.1014935367
 Se        10.8396162268       13.9942982677       10.0248076255
 Se        10.4404584955       12.4435417355        5.9320359711
 Se        14.2644478166       12.2287220321        8.6081487300
 Se        17.2129797568        9.3122751430        6.6458441889
 Cd         6.6627067005        8.7186046894        5.3490107617
 Cd         6.4288846779        4.7625795539        4.3251691752
 Cd         6.2431948913        3.0031566835        8.5209076365
 Cd         6.1921513057        5.0728581938       11.6886149293
 Cd        11.6427177167        1.0643641865        5.8099122722
 Cd        10.1469540596        2.9300640663        9.8180489592
 Cd         0.9561998969        8.6504358649       10.1910490148
 Cd        10.1326488257        9.7914621494        6.2370848114
 Cd         3.8869438838        9.6440549689        8.4904616767
 Cd         5.4018852703        9.2212556391       12.3178229511
 Cd         9.6192897230        6.0852269952        1.4941186136
 Cd        14.4173489576        3.8411851010        4.8273880742
 Cd        11.5431022835        7.0703961498        9.3821293410
 Cd         7.3485923709       12.0646386305       13.7302761302
 Cd        15.0222857337        5.6792510983        2.2293574850
 Cd        13.4640738767        2.6918842933        8.5119689208
 Cd         5.6792377881       11.9420110057        6.3146633429
 Cd         5.3505177665       13.0110906232       10.8380559592
 Cd         9.0052425865       14.6327985791       11.8996241365
 Cd        10.2943047806        9.8615011609       -0.3908439606
 Cd        11.5258435270        6.5554264368        5.5044478024
 Cd         9.1404561712        8.1038272424       11.9691533709
 Cd        10.9431202746       11.4837555068       10.8554342916
 Cd        12.5876407118        8.3709449457        2.6958950489
 Cd        15.4044763680        7.9502756832        5.1674597213
 Cd        13.1838252046        8.3881778862       12.4621328333
 Cd        16.6776826665        8.8842734417        9.1511551009
 Cd        14.7161679002        5.7108525756        8.3713518589
 Cd         9.5398228204       14.3744751824        4.3018768593
 Cd         9.1983025484       13.9169452413        7.9220856491
 Cd        12.7929832295       13.2286160460        6.7301075589
 Cd         7.7954328610       10.1418764113        9.0369478693
 Cd        16.3388497281       11.8156627574        6.9422653981
