426
 i =     8800, time =    17600.000, E =     -8405.8590347639
  O         7.9854358503        0.0752374869       17.7612953702
  O        14.0183503920        1.0042724928        0.4272370636
  O         4.5432588958       13.5406963648        1.1878374495
  O         2.6731614382       16.7059790023       13.1278835277
  O        11.0948423996        3.6331964730       16.3866859930
  O        17.8847069340       15.2946626337        2.5978570666
  O        17.6179488549       12.0524088593       12.7928851501
  O        11.2119622963        1.2665486586       13.9532719874
  O        10.8661766522       13.6787088510       14.7254541285
  O        -0.6412009871       -0.1561551513        1.6757236991
  O         2.6052595615        4.8226738275       12.0661302517
  O         8.7617314898       13.3656455380       16.4927972678
  O         4.3520529099       16.5450592837        5.3663986811
  O        13.3370048132       17.1499604104       16.2879148762
  O        18.2816766534        1.4509241972        9.6601211464
  O        16.6944979335       17.6356081282        3.9990375148
  O         5.6245719554       18.0069843739       14.6448366539
  O         4.4506280815        0.7490945405        2.3340253546
  O         1.8039008753       10.0028118624       -0.8255067367
  O         8.0600882571       15.1426352995        2.1676689275
  O         0.1275216521       17.4818567213        3.6465389562
  O         1.1002476100        7.0406897344        3.0469406754
  O         8.1826228334        2.6028538354       16.9736772936
  O        10.1130058779        1.2429473419        3.3107777356
  O        12.5256022255       16.3934821363        7.0984262341
  O         0.5768346910       15.3345499542        5.2352573288
  O         4.8822024685        0.6083897818       11.1927796079
  O        18.6826729996       18.3599745105       17.2523416268
  O        17.5468571084        4.0672157230       -1.8401185421
  O         6.4572981893        2.5107332330       12.2502341926
  O         3.0867141654       10.0852883983       15.5761932140
  O         6.9149648581       13.9092403804        0.1113136903
  O         1.5851127250        5.1015971196        1.2522870833
  O         4.4002627027        7.9370696456       16.5964301119
  O        15.6148459255       16.4851863925        8.4873395867
  O         1.3555670020       16.5133012325       15.4433605663
  O         4.6463494278        0.9309849638       15.9195466418
  O        15.6393906049       18.6368498722        6.1862847577
  O        14.6794803574        6.2694295012       16.5635642944
  O         1.8149393209        4.4580241363        3.6690673904
  O        14.5164094144        8.4296717884       -1.2142246072
  O        -0.7363170336       14.4997996020       12.6674197116
  O         1.8591261662        4.7565574534       -1.4235226905
  O        -0.0705086746       12.0293453224        3.1222653256
  O         4.3397277577       -0.0795393632       -0.2815722124
  O         0.5136867903        5.1430963418       10.4553864395
  O        10.1532702540        0.8970316240       16.3787271488
  O         4.5404649136       17.3333828718       11.1491026448
  O        16.4112548378       12.9086067656        4.4222869579
  O        12.8242524349       17.2637919710        2.0725068208
  O        17.0371821546       -0.8780219791        9.5511622159
  O        16.2202062060        4.4619269293        1.4679059419
  O         3.2073323963       16.9733756135       -0.1502314056
  O        -0.4548523467        5.7367315043       -0.3556231328
  O         3.8580189742       12.7828776443       15.6980609644
  O        13.8453133535       15.2863952225       11.6194476950
  O        18.1236903529        2.4273665864        1.2398348474
  O         6.0707583885        1.3042012234        7.6683469415
  O         2.1892579562       14.7907860827        1.1839975973
  O        18.7012098098        4.9262382374        2.4605256117
  O        12.2027914249        8.2710817663       16.7478878958
  O         8.1028776757       -0.3517387159        2.2960960255
  O         6.0770600116       18.5133638814        9.2811548150
  O        10.1423933377       11.1209356504       16.7431486439
  O         3.4568602154       -1.1401247375        7.3271951125
  O        -0.0406862776       11.6387289256       -1.9485253113
  O        12.4685378614       17.4730938493        4.6390029646
  O         3.0215582012        4.0141077562       14.6666964173
  O         3.1822314342        2.2037193659        0.5432194065
  O        13.7500955556       13.5191266471        4.4679309975
  O        18.0820846654        2.7370251846        6.0363639312
  O        11.8727210622       15.3533010410        0.3497946722
  O        18.5866106657       -0.2246552156       11.6113509800
  O         5.6464090326       11.7688869935       -0.2168044421
  O         8.5172166547       -0.3905718123        4.8053208054
  O        16.1662025293        1.1033412383       11.2986884169
  O        14.8361589796       -0.2354684666       -1.8203127217
  O         5.8672913602       -0.7831237725        6.3439333967
  O         9.7450517268        1.8250813195       -0.5802523376
  O         3.8653607322       -0.3011977451        4.6984476516
  O        17.4132855414        5.8816754754       14.2808368753
  O        10.4957414076       18.1449715735        6.2667841128
  O         4.6966995521       14.0663655917       -1.4890131799
  O         2.3556919465       16.7284770702        3.6973273714
  O        13.5512790664        4.2654517829       -1.8989184444
  O         5.2194540105        6.7765311948       -0.4900109123
  O         5.8638848006        2.0236190581        0.4020155584
  O         1.1769585429        9.7334459890       13.0216412697
  O         8.1258272095       -0.7303929935        7.5382003826
  O         3.4304340771       14.8916762571       11.3594520313
  O         0.9534675744       17.2417921568        1.0271380807
  O         1.7306613684        8.1725590721       16.9028830087
  O         9.4746736812       14.1738511699        0.0947591873
  O        16.9213355772       11.0921362727        9.8138918697
  O        17.3425969618        1.8637546674       16.0296132502
  O         9.4941554834       15.8946234856       15.6102362825
  O        14.7633130289        1.7387454535        6.9067899473
  O        10.6745511812       18.1561293596       14.9948483942
  O         8.1504565089       17.6796853056       14.2447309568
  O         6.9310379953        7.4505272248       -2.5026213730
  O         3.6800594740       14.5354207512        3.4391579191
  O        10.2852577193       16.3490032957       13.0353532056
  O         1.9430847553       -0.4430936271       -1.6757142208
  O         3.7194993274        2.6032214477       12.4910476882
  O        15.4701131062        3.7093476288       15.7579159474
  O         2.9099984795       18.7117072034       14.7683680545
  O        17.4668986663        0.5653068519        4.7966728423
  O        17.0581117850       -0.4545815237       13.8914456764
  O         8.1587488371       11.2378938272       15.0354346335
  O        14.0241859642        6.0481143680       -0.1013005791
  O         4.8344167062        3.1178780511       10.1291388175
  O         0.4009841608       17.4627964138        8.5112937160
  O        12.9438157952       19.0421129581        6.5155779086
  O        11.5505396099        6.0950455760       -1.3572386111
  O        14.6076433297       -0.3058157970        8.5974130489
  O        16.5643541674       17.1281615409       15.7951051537
  O         7.9984883532       16.2829204523       -0.3408792071
  O         0.4342742760       13.8783971781       15.9801501223
  O         5.3002894215       11.0085560659       16.5897411296
  O         2.0524606503       17.0813173189       10.5132204127
  O         4.7895761923       16.6472442889        2.5817323223
  O         1.3767957217        3.2141452362        6.0064917966
  O         1.7304761268        1.5174228824        9.5471579642
  O         8.2199455404        5.1956268563       16.1229355133
  O        15.0385979343        8.3680091913       13.3621380435
  O         0.8448807725        8.5559955616        4.9627822144
  O         5.9107373486        4.0518759960       16.9396208337
  O        10.8401045216       14.6562530967       17.3187725448
  O        15.5383964531       15.4404591776        4.0661198943
  O        17.6868659106       12.3048948132       15.5915242155
  O         0.1294347894       11.0321304844        9.0171711943
  O        11.3298421441        6.1240992460       15.3183812674
  O         0.7449858866       18.4533161969       13.5352940855
  O        18.5958478463       13.1075845175       10.4248947075
  O         1.8028305144        7.2979564842       -0.0301313209
  O        18.4485371441        6.3472635448       16.4758393332
  O         0.0787055487        3.1453291083        8.1840334654
  O         2.6163126403        7.8308009081       14.4653157261
  O        -0.6266039283        1.0913681878       13.8099492666
  O         0.8292221857       12.2886367245       12.3517411720
  O        14.2532324039       12.3239338062        0.1665007040
  O        10.4138652706       17.9841140910        2.8661281316
  O         1.2932095565        7.2536816387       12.2583249005
  O        -0.0923069905        1.0774623971       -0.5861176757
  O        18.5347833741       15.8559581154       16.5828864949
  O         0.3047918572        0.5569223170        7.4589749378
  O         7.1655006049        0.7284678575       13.9527074084
  O         9.0292766731        2.2433057024       12.8658945595
  O        18.1886068940       16.9890082068       13.0978905111
  O        16.4828038835        6.5269475706       -1.0063395131
  O        14.8363958611       -0.4033722819       14.9809128295
  O        13.6304737746       13.1488395449       17.0447988212
  O        15.5829126799        2.1705208351       -1.4330614256
  O        -0.1249109018        7.9566888773       14.4614969019
  O        17.2381902079        3.7620766909       12.7822269306
  O         1.2570382403       17.7802105309        5.9543926820
  O         2.5418986139       12.3448860295        2.3386720153
  O        12.8129839768       10.5844624242       -1.5032985961
  O        16.5401560959       15.5076244954       11.5273963294
  O         4.3034069716       17.8594681976       16.9989961630
  O        14.1412505312       16.7453069274       -0.2476970092
  O        11.7746199374       12.7749402312       -0.3740261906
  O         7.2974694808        3.4726548536       14.5187005765
  O         6.7101189043       18.2604756918       12.1200582325
  O        16.8236986963       12.1927711859        0.6714372769
  O         2.6349298896       14.8481704337       16.6206724965
  O        15.8443919145       16.6568930311        1.7200847589
  O         1.8825731988       -0.1113574947        2.6180030235
  O         0.2255581372        5.1366316834       13.1542386316
  O        15.0270806601       17.5621255827       10.8784088231
  O        16.8151548691        8.3215425821       15.2848936352
  O         7.6924655107       11.1350893426       17.6367022988
  O        16.0743444975       10.7095922925       14.3831731007
  O        16.5902746786       16.7864443306       -1.0458087668
  O         0.6804486956       11.7256120952        0.5723292646
  O        18.9678647487       16.1789064167       10.6506987595
  O        19.0837732217        5.3495111129        6.4965017425
  O        16.7225715348        0.4716543670       -0.0115607222
  O        18.0932265774       -1.4094069216        6.4557187965
  O        17.8948992824       12.8773189109        7.9593019225
  O         1.0686728997       15.6999215271       -1.0753626848
  O         2.5867824784       12.4413267688       -1.3467646157
  O         5.3527703594       10.5964245238       14.1493408684
  O        11.3663004067       15.4810817901        3.3086564943
  O         5.9907636666        9.2606044832       -0.8728769896
  O         3.0408927103       11.6560794281       13.5398525389
  O        17.2191494556        3.0378405950        3.5494515150
  O        12.5870084150        0.3804271294       15.9898319688
  O        -0.9398217598        8.7676825953        2.9028834766
  O        15.6967649555       13.4232049700       14.2864533040
  O        15.0582445340       13.6147541004        2.2724968008
  O        13.2150772049        4.6903715786       14.7711736832
  O        11.2418267791        2.4940382030       11.5919416839
  O        18.9246808725        3.5523141314       14.9652528172
  O         9.6220950317        7.3451888280       16.7987997609
  O        10.7486657931        3.9937931817       13.7702293025
  O        15.3029537642       16.8658859508       13.3982556679
  O        11.5352447812       17.9599962092       -0.2133803126
  O        -0.4498753810        8.5591810310       -0.8156280531
  O         0.2698954756        2.0907798125        3.9713118111
  O         5.0167583039        4.9237392681       13.1517125520
  O        14.2114499723        9.3928542164       15.6629090071
  O        15.8169232597       14.5834788838        0.0084673112
  O         0.4908711433        1.2236048271       16.2466336951
  O         1.4058010143       15.0364274483        8.8795624457
  O        12.2307956039        3.9782801955        0.2826866861
  O         0.7878109424       11.5363773720       14.9656390912
  O         8.3899808729        6.0722945202       -0.6645861862
  O         2.8239403587        2.0307130617        3.9511993458
  O         1.4436317930        9.7975675872        2.5340823028
 Na        10.3343569936       11.4339368793       13.9181196375
 Na        18.4985403897       13.5243250844        1.0459641322
 Na        14.1082783477        3.0881030409        1.1514067751
 Na        17.2067663715       10.5100684066       -0.8976203377
 Na        18.5311283196        7.1739998544        5.3161462915
 Na        11.7027613925        0.5529100072        0.8334302508
 Na         6.2955558087        4.7758851177        0.1893394725
 Na        12.0521420465       14.9292859217       13.0869468886
 Na        -0.4845539816        6.2369360302        8.7364942389
 Na         0.7464641512       13.5973545822        7.1854175239
 Na        13.1273446173       10.2302584212        8.0943093417
 Na         4.7997404429        5.4298705837       15.5231152810
 Na        10.7108856543        3.1604021715        2.1007979309
 Na        13.6869245420        0.9080699554       10.7506817359
 Na        16.0860193758        1.8878146342       13.3795802373
 Na         0.5986294257        9.9704566467        6.7433746974
 Na         9.8884545920        4.0372133984       -1.1427997664
 Na         2.6858963197       14.1432756984       13.8159228495
 Na         7.8434585831        6.6761459511        7.2683104080
 Na        17.2620578967       15.1423207314        8.6174146568
 Na        -2.9199181582        9.7621316795       11.7501897234
 Na         8.7447973527        5.4012679575       13.2922270562
 Na         3.2589404456       15.8170576307        7.5969420911
 Na        15.7405604643        6.1319654317       12.4473938827
 Na         6.2475631954       17.6257938951        0.7806567985
 Na         3.1416806939       10.0789669452        4.2549698128
 Na         2.4699863576        3.6430428507        9.7885682451
 Na         1.2492789955        2.8545229675        0.4176370999
 Na        17.8024596684        7.6469647403        0.8764178544
 Na         1.7967311557       12.9095209747        9.9923130664
 Na         6.4429125745        9.4152876387        1.8801685277
 Na        14.4048275811       15.3320869675       16.9546987843
 Na        13.2456440023       15.7764591939        9.2289409556
 Na         7.4260888564       17.0976449369       16.9959665800
 Na         6.3551873084       -1.5441155806        4.0427312816
 Na        12.1604758594        2.1802261154       -1.6962870093
 Na         6.1308605048        1.4276937646       -1.9452353257
 Na         2.7321580080        6.4933151496        5.5580029817
 Na        15.2095119046       13.3768089754       11.0539390791
 Na         6.1497202631       14.0525567368        2.8386844658
 Na        14.4029939149       18.7089323059        2.9809320148
 Na         3.7805499909        7.1706248853        1.1657715968
 Na        -0.8044229274       13.7905081380        4.2418939748
 Na         2.9137661246        1.7175902044       14.8203240883
 Na         3.5774112822        0.6706839229        8.6959781221
 Na        13.3103003772       12.8277425143       14.9815137613
 Na        14.8834400732       16.1749489974        6.2545085826
 Na        16.6089508263        2.1654410152        8.2985418943
 Na         9.2565512822       -1.2856433012        0.7109732446
 Na         5.5893648412        2.1534032689        5.2621842472
 Na         7.9591182601        1.5688790802        1.0445818285
 Na         3.8010436879        3.3592387907       18.0437582775
 Na        18.2450144961        3.4974524281       10.9030672766
 Na        12.5550187935       13.4257383228        2.3417302849
 Na        11.0532984626       17.0475405077       -2.2216527074
 Na         6.9234036678        9.2025571795       14.9371103406
 Na         1.5362457172        0.1339574423       11.4415245676
 Na        17.3479478983       10.9657066760        3.1572803338
 Na        17.5683855847       14.8978757049       14.8225850358
 Na         1.2202242735        4.8361724699       15.7302345548
 Si        -0.6286200370       12.9776503984       12.0333826353
 Si         3.3714655243       18.2637119199       -1.1109006382
 Si         5.4102591001       13.4149268040       -0.1839578494
 Si        14.9441458500        6.8344376989       -1.3123476540
 Si         0.5800950591        8.6633884901        3.3516059818
 Si        11.7094375120       17.0077380379        3.2530622153
 Si         5.5985496159       18.5490571751       10.9282268862
 Si         1.2337526395       11.4589222060       -0.9835601002
 Si         1.0654989969       16.7081399461        4.7127510007
 Si         3.3580252687       13.5089989605       17.1025956207
 Si        15.0490086633       16.2366992617       11.8727010271
 Si        18.1513502084       11.8845989704        9.2387570385
 Si        18.1986223511        0.9183516932        0.5815907226
 Si         8.6952472760       11.7312048449       16.4650298023
 Si         6.5587194725       -0.2281040365        7.7796222314
 Si        15.5850518600       16.2022816340        0.1675190228
 Si         0.3358708012        1.5691547380        8.7550900140
 Si         0.4218128189        0.1534109360       -1.8834703509
 Si        17.9945122678        7.1898112416       15.1573681392
 Si         9.2917996129       -0.1893201110        3.3820170992
 Si        15.1798934505       13.8618465855        3.9151684706
 Si         5.6661266978        7.8173598724       -1.5558268692
 Si         4.4980146267        1.3521929330        0.7449338912
 Si        10.6442781215        2.4827155622       13.0456684604
 Si         5.0053516795        2.2218983841       11.4719877657
 Si         3.1631808196       16.4904265407       11.5579094279
 Si        16.6466547230       16.1215010032        3.0417448520
 Si         1.2436688835        5.6803786031       -0.3008474264
 Si        10.9784739654       14.2485572453       -0.5278239954
 Si         1.8487877570       16.1101799057        0.3053849601
 Si        13.2091107233       12.2923764190       -1.0748225317
 Si         1.1301743487        8.5047140551       -0.9869445686
 Si        17.8049242414        5.6519267084       -1.5775866766
 Si         8.1018787205       14.9999452102        0.5980436134
 Si         0.9234010906       15.3853519952       16.6365716554
 Si        17.6338603097       17.0449830941       17.0944537077
 Si         3.1632025101        0.5081143056        3.3222437637
 Si         6.8509375348       18.5257770215       13.7023460175
 Si        17.3857732296        0.3549640345       10.6343667513
 Si        13.8450737756       -0.7221862940       16.2686573584
 Si         3.1755560939       13.7617174043        2.0472038035
 Si        12.7496386873        5.0456940120       -0.6897438887
 Si         7.5014673476        2.2235990464       13.4151468633
 Si         3.8588351440       16.1754766223        3.7160441609
 Si         8.9663373948        1.2830882131       17.5272457555
 Si         8.2937651233        6.4890455142       -2.1894392592
 Si        12.0749954559       17.6022772991        6.2232663583
 Si        15.9353857302       17.9298156899       14.4714167054
 Si        17.0060699491       -0.8796254748        5.3343611852
 Si         1.5548331573        2.9613823316        4.3746505427
 Si         9.6815461007       17.0133171962       14.3582832078
 Si         4.4564684846       -0.5886819462       15.5941188737
 Si         7.2997153718        3.7891372023       16.1966369692
 Si        14.2610898323        4.7159814234       16.0605395664
 Si         8.9081188491       -1.3182163042        6.1499141870
 Si        18.1155710769       15.9200028795       11.9617365379
 Si        15.2063052993        0.7900016652       -0.6489060391
 Si        -0.1290046155       12.3267363508       15.9895188151
 Si         0.6256413140       18.2193469400        2.2609967641
 Si        15.5486523186        9.2114656606       14.6386248807
 Si        11.5489377560        4.4768878302       15.1320424605
 Si        18.1360146933        2.0106249159        4.5880124528
 Si        18.1973927165        4.5752551233       13.7709563167
 Si        15.5613202719       17.8271993783        9.3241941733
 Si         1.1434933104        5.5957078155       11.8684984194
 Si         1.5195683434       11.2945794932       13.5059734932
 Si        -0.0580736898        3.7307364867        6.6671682058
 Si        18.7958929592        1.9265437926       15.2376045938
 Si         1.2581207666        8.1583862078       13.5631482210
 Si         4.2079712329       11.2436782599       15.1941236740
 Si        16.4442272439        2.9642771371       16.8356773632
 Si         0.1720861044       -1.1384748301        7.1071401601
 Si        17.4984636962        3.7413338193        2.0932226285
 Si        14.4542771608        0.1583552034        7.0097561968
 Si         1.8579783239       17.5473204053       14.2462347053
 Si         4.2896066024       -1.2403732456        6.0010245560
 Si         9.9765760783       14.3162171161       15.9300206252
 Si         6.1277727195       10.7871807540       -1.4949994843
 Si        -0.8661492588       18.7834322159       13.2699131332
 Si         0.9099697957        5.4364131319        2.6696239760
 Si        12.5775439618       16.8930524393        0.4810511059
 Si         3.0353121182        8.5305499397       15.9763351573
 Si        16.6923771643       12.2040436606       14.2210673172
 Si        15.5711368336       13.1723439934        0.7907175903
 Si        11.1088092251        0.3296530116       15.2788426861
 Si         3.6285964377        4.1732398531       13.1460117547
 Si        11.1977592357        6.9700255305       16.7160710092
 Si        13.4995974395        9.2554849060       17.1190234177
 Si         1.1009097486       11.4873488771        2.1882816744
 Si         0.8833616768       16.3162394241        9.6139452433
 Se         7.8856740169        4.9887207597        9.8236609675
 Se         4.7249977430        7.7384126480        3.8879132204
 Se         5.3893233574        4.6455619599        6.3975399058
 Se        10.8856416691        7.0510277979       11.8393332000
 Se         8.1527881542        4.6621698451        2.5027793816
 Se        11.0301980676        1.7352172226        7.9295384253
 Se         4.1787007439       11.1799241759       10.4828841053
 Se         9.0727639142        7.8165916466        4.6268143985
 Se         2.3883651846        7.5146314180        8.5822588088
 Se         8.4084073667       11.3915764378       11.6388329956
 Se        12.2838117514        5.9093558674        3.2269510088
 Se        11.2613464333        5.3897039850        7.6618698640
 Se        14.0794555781        8.2148248308        9.6704430208
 Se         6.7473758566        7.6546750604       12.5912614081
 Se        13.3116428770        1.9808961345        3.3851809720
 Se        15.0150158662        3.8557468257       10.0263002723
 Se         6.7980015948       11.7582512647        4.2833546400
 Se         3.0015944294       11.5725297484        6.5618642492
 Se         6.4656894440       13.7860895660        8.5921330814
 Se         9.9729042220        9.1865068713        1.4958086370
 Se         6.5732955471        9.0599609234        7.7932903812
 Se        10.1568807884       10.0893936137        8.5441331532
 Se         6.5819148133       14.6993572535       13.1195995376
 Se        15.1089587019        8.6144858564        2.1618705575
 Se        12.6705842513        9.5170989267        5.1231679301
 Se        17.8907662512        7.7640433012       10.6218749362
 Se        12.8276766203       11.2916529468       12.3026804818
 Se        15.3744694390        5.7968581388        6.0458383106
 Se         8.1221563911       15.9704958519        5.8495988177
 Se        10.4800629415       14.6354338040        9.7640565905
 Se        10.0274382756       12.7900048389        5.7766734380
 Se        14.1989891441       12.8343739627        8.1470579156
 Se        17.1381164784        9.6514160098        6.3308067862
 Cd         6.4870204423        9.2661162859        5.2056253508
 Cd         6.5753519767        5.5652855271        4.3358158789
 Cd         6.3943110433        3.2780613712        8.4475371166
 Cd         5.8884051767        5.4578365636       11.4104829792
 Cd        11.3376270145        1.8567501993        5.1972823338
 Cd        10.1002154268        3.3555797958        9.9060110243
 Cd         0.8102193870        9.0846651977        9.9065198753
 Cd         9.8946727932        9.9319814526        5.9141647811
 Cd         3.8554249194        9.6390661349        8.0645202554
 Cd         5.0247068634        9.4818626410       12.2542148126
 Cd         9.2882461060        6.6091539332        1.3706689941
 Cd        14.7483653478        3.4643468778        4.9811900950
 Cd        11.0625368494        7.4414646025        9.1393036913
 Cd         6.8766499017       12.2240659838       13.7392746865
 Cd        14.8540500941        6.1192095838        2.4670118364
 Cd        13.1793717016        3.1189889016        8.4794226679
 Cd         5.3924811345       12.6676367721        6.4594316084
 Cd         5.2053580335       13.5343635539       11.3312345699
 Cd         8.9856639421       14.8341278082       11.9365214192
 Cd        10.2940060374       10.3030518781       -0.7721866470
 Cd        11.6959243168        6.9909781894        5.5712072803
 Cd         9.0248318294        8.8669865707       11.6459801872
 Cd        11.0416119243       12.1351948782       10.4919130352
 Cd        12.4553167135        8.5631086754        2.5824601968
 Cd        15.1392606303        8.4644614459        5.0134875489
 Cd        13.0573535166        8.6183321764       12.1689024613
 Cd        16.5055729986        9.1689967439        8.8584058317
 Cd        14.4444937809        5.9704367182        8.4777919542
 Cd         9.3989083911       14.9007174796        3.9173903363
 Cd         8.9091913804       14.2225857839        7.6646882328
 Cd        12.5087575866       13.1955807687        6.2296901727
 Cd         7.4236917655       11.1908580065        9.1026671076
 Cd        16.1441483562       12.3534796002        6.5692827261
