426
 i =     7600, time =    15200.000, E =     -8405.8647580312
  O         8.4988159816       -0.8022075258       17.4992466410
  O        14.1721165485        0.6682158341        0.3346720745
  O         4.4954780484       13.1645334172        1.3600681695
  O         2.6759032169       16.0369400686       13.0961585802
  O        10.9874552539        3.3903107907       16.3293744680
  O        18.1057159363       15.1307416054        2.5228032435
  O        17.6670104695       11.8822003135       12.9450187092
  O        11.1982531137        1.0867750751       13.8673214030
  O        11.2461481555       13.5788996824       14.9069705205
  O        -0.5152018238       -0.4599907489        1.6844070797
  O         2.7578052818        4.3946505936       11.9619429382
  O         8.9265904536       13.2048093632       16.4640445320
  O         4.4760229506       16.3177784806        5.3623307618
  O        13.4087892088       16.8983128504       15.9916436958
  O        18.4840250662        1.2777585307        9.6093170406
  O        16.8968076258       17.3537198953        3.9949910775
  O         5.8451220765       17.7053464983       14.7814490827
  O         4.5062028525        0.5298481921        2.2049917900
  O         1.8948413020        9.7042584402       -0.8673263433
  O         8.1842507695       14.7496428605        2.1906852564
  O         0.1330411869       17.5046078666        3.7030474054
  O         1.1920895362        6.6005995818        2.6748469789
  O         8.3104834386        1.9688350447       17.0293406296
  O        10.0855996822        1.0362848080        3.6107421477
  O        12.9768311680       15.9908482620        6.8423594395
  O         0.4500434954       15.0959835844        5.2871938040
  O         4.8598176557        0.2176647929       10.9816476500
  O        18.6897850299       17.9534072556       17.3655338571
  O        17.2205745851        3.8190536507       -1.8664471529
  O         6.5575645784        1.8561263203       12.2168462286
  O         3.3969668991        9.6267977221       15.7284937421
  O         6.8986919667       13.3429446683        0.2848053421
  O         1.4396007119        4.5498432276        0.9885005917
  O         4.5108522815        7.3501275548       16.7330918437
  O        15.7866306351       16.1766718058        8.5272527042
  O         1.3698305022       16.0213226825       15.4219738705
  O         4.7012348982        0.5152752345       15.7608927861
  O        15.5504874936       18.2578406586        6.0328891238
  O        14.6131213222        5.4904821917       16.5827493042
  O         1.7528953723        3.9860107126        3.4438296304
  O        14.3365452102        7.7205985604       -1.3642922345
  O        -0.4380766872       14.2493863851       12.7160464823
  O         1.8972740650        4.6482066419       -1.6376643945
  O        -0.0695839846       11.5306139797        3.1520588381
  O         4.3368212237       -0.6382500650       -0.1124246782
  O         0.5827009142        4.8060858804       10.5345587000
  O        10.3751614061        0.5575597196       16.3183893683
  O         4.5958010789       17.0218328432       11.2902072400
  O        16.6563253853       12.6644603377        4.5776112635
  O        12.9402926752       16.9020434647        2.0028840190
  O        17.2289529187       -0.9931548857        9.6548319272
  O        16.3005780458        4.2291522187        1.6057538883
  O         3.2090098330       16.4902870488       -0.3368943501
  O        -0.5114473887        5.2970433714       -0.4052058612
  O         4.1014853583       12.5370529637       15.7004084700
  O        14.1058025688       15.2172865372       11.9124964131
  O        18.1668780348        2.2694896581        1.0138802450
  O         6.3164905012        0.8893253419        7.9901182463
  O         2.2513406424       14.5754841721        1.2888881582
  O        18.6918514090        4.6014357102        2.5380307807
  O        12.1778438782        7.9533700671       16.4240268204
  O         8.3367844897       -0.7393761067        2.4371466247
  O         6.1429193276       17.9388611394        9.3441516535
  O        10.2304078521       10.8843941544       16.7525466658
  O         3.5123157628       -1.3354303978        7.2359484907
  O        -0.0236666325       11.5550377326       -1.8240712701
  O        12.6945288819       17.4441404773        4.7065101552
  O         3.0184639436        3.5124089774       14.5975912051
  O         3.4180254644        2.0200788913       -0.0204206206
  O        14.0669604272       13.2823818663        4.6005213948
  O        18.3750537024        2.6118256905        5.8477162398
  O        12.0795113942       14.6106442486        0.4488157547
  O        18.7037490987       -0.1700084423       11.7164357938
  O         5.6557053469       11.1031755630       -0.0005627863
  O         8.7801805020       -0.7896405958        5.1041396679
  O        16.2815531997        0.9696000339       11.3081330687
  O        14.8629710419       -0.7588947646       -1.8695714533
  O         6.0693545531       -1.1791047290        6.4267153531
  O        10.0241839601        1.0163627075       -0.4793380905
  O         4.2732387661       -0.5376746237        4.5809161581
  O        17.4434696464        5.5231522362       14.2962816912
  O        10.7054396073       17.4910612963        6.5076356819
  O         4.8141784904       13.5355934130       -1.2115452609
  O         2.3420403803       16.4505506711        3.8219239295
  O        13.4344813606        3.5033963965       -1.8185713576
  O         5.3923021506        6.4367882046       -0.2268133641
  O         5.9894699371        1.4707313515        0.1524391510
  O         1.5885167717        9.2379990405       13.1393968750
  O         8.2968349061       -1.1084957171        7.6909623392
  O         3.5602735550       14.4890716336       11.2136568930
  O         1.0082279552       16.7937291376        1.1464362461
  O         1.7942333519        7.7066123385       16.8943441615
  O         9.5278981224       13.5476232968        0.2481355562
  O        17.0795767401       10.8619250930        9.8892149366
  O        17.4288075028        1.4570949108       15.9075287344
  O         9.6212836045       15.6253484594       15.6026359553
  O        14.8155075519        1.3396156488        7.0139383494
  O        10.8697422405       17.8256083279       14.6267049360
  O         8.2673511543       17.1054532560       14.1288571083
  O         6.9718721145        6.7738098085       -2.5867268824
  O         3.6874432361       14.2081860398        3.6650915745
  O        10.3947419648       15.8145809264       12.9800777591
  O         1.9034820367       -0.9221853998       -1.6562167890
  O         3.9595198855        1.9731572533       12.6278541564
  O        15.4532685451        2.9439761959       15.7772257387
  O         3.1595349301       18.0718733019       14.7485105472
  O        17.5303822567        0.3687244940        4.8516268118
  O        17.5319294398       -0.7655163949       14.2460583182
  O         8.1718122543       11.0627422775       15.2031711653
  O        14.0214388486        5.3326026810       -0.1405308521
  O         4.9654891861        2.8584140565       10.2707476449
  O         0.3587337812       17.3157408120        8.5453034239
  O        12.9970936535       18.6927941150        6.8234835605
  O        11.9752373922        5.7247719904       -1.6944567933
  O        14.7880913890       -0.6126386502        8.6757841838
  O        16.6463391430       16.8523985361       15.9567681199
  O         7.8992883073       15.7671661807       -0.2487428430
  O         0.4544207964       13.4610040028       15.8047845540
  O         5.5321754844       10.6458550282       16.5804279660
  O         2.0642609437       16.8081961571       10.5125929564
  O         5.0557930450       16.2289561350        2.7731131777
  O         1.6517468224        2.9529334455        5.8751449921
  O         1.8184295223        1.4254445449        9.4775776283
  O         8.2813933891        4.6375281625       16.0213063026
  O        15.0622776353        8.1281827393       13.4420000314
  O         1.1291685394        8.3133500462        4.8320085876
  O         6.0345999717        3.3031169154       16.7363489127
  O        11.0198464791       14.5021001021       17.4176703567
  O        15.7688076955       15.1567502157        3.8745487348
  O        17.6312686013       12.0833532681       15.7046781146
  O         0.3292825539       10.8058889234        9.0097465444
  O        11.4565871373        5.6566655857       15.1570740800
  O         0.9713207594       18.1191959565       13.6862707911
  O        18.6751663065       12.6991774718       10.6736275699
  O         1.6547634074        6.8753527987       -0.1023598864
  O        18.3033261846        6.1862122476       16.5966700176
  O         0.2759549260        3.0424207204        8.0885614571
  O         2.8061613783        7.2810413699       14.5488204289
  O        -0.2088407108        0.8772707013       13.8179431848
  O         0.9272519802       11.9039066663       12.5632955077
  O        14.1265924178       11.9484863455        0.2670214659
  O        10.6311186840       17.7873267278        3.0158337186
  O         1.5845074164        6.8141352358       12.2105213136
  O         0.0147178308        0.7228405278       -0.6153820338
  O        18.6602552131       15.3457499375       16.6704485034
  O         0.3726293589        0.3153973626        7.4846708748
  O         7.7306208310        0.1769218207       13.9930156919
  O         9.1909828319        1.8970748200       12.4759328574
  O        18.4789842667       16.9134401320       12.5979257835
  O        16.3993266287        6.1262758904       -0.9668159582
  O        14.9828680745       -0.6018819522       14.8244306780
  O        13.7376657532       12.5507028536       17.0507138611
  O        15.8308821789        1.7308904829       -1.3180870800
  O         0.0728590286        7.2423631894       14.4265840231
  O        17.4201432500        3.3873619970       12.8824432444
  O         1.1673441478       17.5202472397        6.0319422138
  O         2.3937394955       12.0769726292        2.6124265816
  O        13.0294315016       10.0072221059       -1.3064445141
  O        16.7645848785       15.2639139608       11.5093095265
  O         4.3604691148       17.4891197254       16.9861750214
  O        14.0959246996       16.1388849326       -0.3033915885
  O        11.6405354039       12.1497583493       -0.5302321447
  O         7.7853851818        2.8783915591       14.4198352454
  O         6.8191088483       17.9841334962       12.0711635176
  O        16.7940102809       11.8488608918        0.5327269776
  O         2.6741628081       14.3633455420       16.7383318466
  O        16.0273621267       16.4464706497        1.5792485712
  O         2.1708300274       -0.5815337676        2.5635183076
  O         0.3668233326        4.8576736355       13.2082299211
  O        15.3153645402       17.3951919328       10.8775561903
  O        16.9148487104        8.0113308655       15.4281825037
  O         7.7618526210       11.0368591699       17.8941873775
  O        16.1455542285       10.3292087824       14.2942175256
  O        16.7597002670       16.2291002694       -0.9964565172
  O         0.9140201765       11.5544301589        0.6592085201
  O        19.1465669020       15.4553799157       10.3167882599
  O        19.4526052890        5.0451647099        6.3681768548
  O        16.7857125127        0.0253020504        0.1892202036
  O        18.0908689009       -1.6642499995        6.4448551173
  O        18.1469814978       12.7167373199        8.0545105170
  O         0.9739422216       15.0457551598       -1.0097387706
  O         2.6328704443       12.1458444748       -1.3201555370
  O         5.4550552003       10.6205658901       14.0877302662
  O        11.5638280116       15.3634613754        3.5107750689
  O         6.2849623162        8.7792196682       -1.0037473664
  O         3.1284335094       11.2362034788       13.8936393768
  O        17.1827148403        2.6009918494        3.4494535801
  O        12.8136901632        0.0366906784       15.6739540164
  O        -0.8081599468        8.2916452119        3.0180817404
  O        15.5089300687       13.0287568636       14.2392424675
  O        15.1074542178       12.9284425732        2.3859756824
  O        13.2234286435        3.9176324343       14.8347847483
  O        11.5954476722        2.4156460405       11.5014429879
  O        19.1213993320        3.2325829207       14.9604263178
  O         9.6750287885        6.7599654065       16.7960862418
  O        10.9218644979        3.6464285840       13.6229559267
  O        15.7313011573       16.6069669031       13.4433592104
  O        11.5694346867       17.1749017347       -0.2466482904
  O        -0.4421827162        8.4936729397       -0.7305096917
  O         0.3397525680        1.7979145047        3.9064488714
  O         5.0795812256        4.4095696520       13.1216927533
  O        14.4596513305        9.2422972948       15.8526235183
  O        15.5335636500       14.1464103420        0.1262280258
  O         0.6528501392        0.9672314900       16.3455337705
  O         1.6492617760       14.9673368059        8.6310874404
  O        11.8990636122        3.7188233550        0.2617304528
  O         0.6019934471       10.8535790825       15.0238625136
  O         8.3855173830        5.3433828522       -0.7120385050
  O         2.9613426618        1.7340276386        3.8206573333
  O         1.6149827052        9.5242116387        2.4515926291
 Na        10.5638725144       11.3621928040       14.1824254422
 Na        18.3810510390       13.3789449897        0.9260673011
 Na        14.6511479655        2.7411377857        0.8695616536
 Na        17.3541992673       10.1593756620       -0.7948384557
 Na        18.4949800450        6.6993204438        5.0509144904
 Na        11.6202121911        0.1805377449        0.8708836241
 Na         5.9159788242        4.0185809116       -0.1490330164
 Na        12.5780630268       15.6261016013       13.5281563019
 Na        -0.3331032909        5.7671651468        8.6254598067
 Na         0.4641520746       14.0414358380        7.1255597844
 Na        13.3653213702       10.1046719230        7.2832189687
 Na         5.3518694745        5.3094887124       15.2200283123
 Na        10.7853235667        2.9700289846        2.6491482849
 Na        14.2470459613        0.8127991938       10.4797722202
 Na        16.1668375960        1.7098489782       13.3919090007
 Na         0.4720236786        9.8922994698        6.5718613504
 Na         9.6853064156        3.4221916056       -1.0042752062
 Na         2.6379340303       13.6508816208       13.4606790194
 Na         8.5598536988        6.2528756638        7.1893544922
 Na        17.2957365371       14.6667781018        8.9552302355
 Na        -2.9475778845        9.7584114773       11.9787044922
 Na         9.0755294067        5.1474902558       13.7302235213
 Na         3.6185256871       15.7978212402        7.9947765241
 Na        15.8249037792        6.1087383716       12.4686676706
 Na         5.5757518311       16.3848993473        0.6277105946
 Na         3.0387579824       10.2526654397        4.1375095176
 Na         2.7272405576        4.0839380121        9.4695218376
 Na         1.4032900502        2.4932804960        0.3147765107
 Na        17.8626089375        7.4935082483        1.0840047463
 Na         2.0354659892       13.0429121660        9.8562284989
 Na         6.7013126951        9.4986556124        1.8504185499
 Na        13.6002305352       14.6844902842       16.9474718622
 Na        13.2755901522       15.4388032034        9.5873626996
 Na         7.5434918380       16.5829493860       17.0031534047
 Na         6.8063057335       -2.0436049910        3.4589941547
 Na        12.0641332985        1.7059429926       -1.9420828127
 Na         6.1411471509        0.9507910732       -2.0019251729
 Na         2.6053336060        6.8831517492        5.7410951734
 Na        15.0924878083       12.6447777463       11.5254416952
 Na         6.2649998943       13.7303796177        2.9868415425
 Na        14.5804828901       18.5287618310        2.2451198256
 Na         3.5895324728        7.0540625494        1.0199504237
 Na        -0.4647915100       13.4664972701        4.0947025854
 Na         2.8908456489        1.2192839803       14.6414271151
 Na         3.6131889167        0.3982503729        8.5000621228
 Na        13.5184339480       12.3853617555       14.9123946826
 Na        15.2627768218       15.8175528868        6.1113342243
 Na        16.5773789339        2.6321600114        7.4465275235
 Na         9.4003432659       -1.8954755539        0.4210973179
 Na         5.7957833701        1.7594307800        4.8359877025
 Na         7.7704185954        1.3332812240        1.4975795011
 Na         3.6212887051        3.2483246062       17.2919861084
 Na        18.0843999163        3.4124904452       10.8194095171
 Na        12.7334137749       13.5292782093        2.6281155500
 Na        11.2279046941       16.9493366882       -2.3572679222
 Na         7.0592170515        9.0059857351       15.0738418606
 Na         1.6942675801        0.3874013710       11.5234492797
 Na        17.3873833041       10.6228798373        3.1614585926
 Na        17.0162935357       14.6600803247       14.6834263283
 Na         1.4552706323        4.6367963187       15.6272113558
 Si        -0.4765162839       12.6676236417       12.2266876569
 Si         3.4155502123       17.9327621886       -1.1516671186
 Si         5.4640515943       12.7704392101        0.0299428986
 Si        14.8378091944        6.1182316127       -1.2851257261
 Si         0.7745206777        8.2841271083        3.3085264128
 Si        11.9596751642       16.8710518376        3.3403180486
 Si         5.6769474903       18.1439848259       10.8989620393
 Si         1.3970792924       11.2453968679       -0.8469199569
 Si         0.9935518892       16.4521560255        4.7628143718
 Si         3.5834526926       13.1545671514       17.1373061434
 Si        15.3999130406       16.1680685436       11.9174612317
 Si        18.4148379600       11.7163118164        9.3420981842
 Si        18.2352587913        0.6042225881        0.6311097593
 Si         8.7830609027       11.5673762537       16.5910895778
 Si         6.7041081605       -0.6524293209        7.9202553280
 Si        15.7093796639       15.7440321632        0.1382001577
 Si         0.4583041030        1.4768450353        8.6878804024
 Si         0.4976554483       -0.2228949373       -1.8766850931
 Si        18.0150298726        6.8114917015       15.1099888760
 Si         9.4028077076       -0.5243856413        3.5724863779
 Si        15.4415356047       13.4734699805        3.9081747185
 Si         5.8082713898        7.2976529835       -1.5302260417
 Si         4.4938937064        0.9447993290        0.5317341915
 Si        10.7611273307        2.2410101051       12.8631972782
 Si         5.1081732185        1.7919045309       11.4862544257
 Si         3.2551277249       16.0584012121       11.4353257043
 Si        16.8798198101       16.0003269804        2.9725054564
 Si         1.1528650576        5.3117168437       -0.4446328763
 Si        11.0109220489       13.7119773821       -0.4256363579
 Si         1.8051428849       15.7422396114        0.1825357651
 Si        13.1554214489       11.7215993057       -1.1420461415
 Si         1.0953305787        8.2790103030       -1.0671748149
 Si        17.7014484928        5.3587805515       -1.5233845573
 Si         8.1785328167       14.4469850711        0.5923704725
 Si         0.9318320876       14.8978753274       16.6045687569
 Si        17.7358038677       16.6267231881       17.1790059928
 Si         3.4038674701        0.1931752153        3.3266718300
 Si         7.0706840407       18.0771790894       13.7416737299
 Si        17.5521167986        0.2959582956       10.6208430605
 Si        14.0093471592       -1.0453899208       16.0519861875
 Si         3.1531967608       13.5357437751        2.1911007908
 Si        12.6318873083        4.5307702155       -0.8160625079
 Si         7.8007591941        1.6887499909       13.2613877057
 Si         3.9186458928       15.8978023225        3.8426165025
 Si         9.2495126889        0.5783242041       17.5306276193
 Si         8.3079898973        5.8154600745       -2.1840140656
 Si        12.3449391438       17.3058845179        6.2811808077
 Si        16.2653076392       17.6995167750       14.5662911464
 Si        17.0332723880       -1.1126007670        5.2821800562
 Si         1.7388346730        2.5991515678        4.2592147548
 Si         9.7856779583       16.6110914930       14.2475073442
 Si         4.5331326449       -1.0169258239       15.5675225235
 Si         7.4844830385        3.0785182110       16.1265433551
 Si        14.2106498005        3.9138133900       16.1548947830
 Si         9.0820299169       -1.7769871038        6.3565082997
 Si        18.3024184979       15.5715007257       11.7755452101
 Si        15.3420788500        0.2844262941       -0.7055713377
 Si        -0.1480363356       11.9561049768       15.9944376095
 Si         0.7367895339       17.9613477725        2.2720553252
 Si        15.6366216316        8.8307202696       14.7545791626
 Si        11.5811325503        4.0315981579       15.0523235847
 Si        18.1785355163        1.7707597851        4.4100752084
 Si        18.3454485824        4.2443578537       13.7595483131
 Si        15.8257449623       17.5816675281        9.3609658641
 Si         1.2899362100        5.1746332699       11.8973453731
 Si         1.5815906487       10.8424044386       13.7113141207
 Si         0.2387726361        3.4791664763        6.5363440906
 Si        18.9602749344        1.5853852910       15.2274546816
 Si         1.4865782634        7.6671388351       13.5894211896
 Si         4.3699166406       10.9337379455       15.2044178794
 Si        16.6368943570        2.4746796525       16.8673513961
 Si         0.1978788044       -1.2647083627        7.1276537606
 Si        17.5710936246        3.4063877157        2.1024268114
 Si        14.5358943615       -0.2069745258        7.0887984934
 Si         2.0108300323       16.9935422731       14.3160460574
 Si         4.4815701076       -1.5106618133        6.0329578589
 Si        10.2463112881       14.0834038109       15.9978259018
 Si         6.3028140716       10.3893334008       -1.4377824694
 Si        -0.5601962882       18.5892169451       13.2129492837
 Si         0.8987648331        5.0588543127        2.4879449340
 Si        12.6107887642       16.2658411484        0.4842650830
 Si         3.1623998815        8.0716237054       16.0928885097
 Si        16.6602888347       11.8717250749       14.3659770394
 Si        15.4385544339       12.5829683417        0.8388449490
 Si        11.2623160216       -0.0013615671       15.1135590099
 Si         3.6377256708        3.6912315605       13.1250566145
 Si        11.2178993215        6.5549988377       16.4821666844
 Si        13.4465688421        8.7410341280       17.0723729199
 Si         1.1110656156       11.1044116782        2.2107974274
 Si         1.0029251781       16.1187545913        9.4262769187
 Se         8.1533208492        4.6623366388        9.6708150830
 Se         4.9338315559        7.8109262995        3.5475491418
 Se         5.3996951434        4.3667079787        6.2761508613
 Se        11.1145703618        6.8422244647       11.9521807787
 Se         7.9188786563        4.0086667276        2.5057207245
 Se        11.0490621620        1.2970129748        8.1265482424
 Se         4.0035073607       10.8642552727       10.7016486503
 Se         9.1667627038        7.8625822448        4.8779756002
 Se         2.3090158383        7.4354474528        8.6620366858
 Se         8.5434087942       11.0051979163       11.6946421032
 Se        11.9704235164        5.5183604806        2.8381390180
 Se        11.4995927769        5.5368299082        7.7472478287
 Se        14.0855908359        8.2234280641        9.5474576539
 Se         6.8346651893        7.2485217973       12.7090135923
 Se        13.3293905786        1.6051893183        3.5666159925
 Se        15.1772917899        3.8030906024        9.7047070265
 Se         6.9740022995       11.2879340824        4.3478587821
 Se         3.0502812632       11.5208005010        6.7199889367
 Se         6.8144676104       12.9055727812        8.4063467248
 Se         9.9579137541        8.6249416801        1.3795985355
 Se         6.2479799984        8.4374187005        7.9152168930
 Se        10.2494661496        9.8569829788        8.6173940855
 Se         6.8343532576       14.5160865351       12.7538602033
 Se        15.2160173583        8.2655650576        1.9131731380
 Se        12.6457806601        9.1684873278        4.7234583481
 Se        17.6708499611        7.5157128352       10.5070249779
 Se        12.9041438780       11.0585297877       12.3487120841
 Se        15.5405407874        5.5458280089        5.7963539160
 Se         7.9873874145       15.5776647925        6.0276179856
 Se        10.8364947165       14.1469992611        9.5528551802
 Se        10.5743962169       12.6237092222        5.2446484697
 Se        14.2703591143       12.6682123746        8.2058148626
 Se        17.0360393367        9.4162499272        5.9590465958
 Cd         6.7062933585        8.8904518095        5.3498523447
 Cd         6.4569656257        5.6595078922        4.0187312028
 Cd         6.2707783411        3.0521287222        8.2941862740
 Cd         6.2100711458        4.8983133895       11.4617675288
 Cd        11.3611369522        1.4115885014        5.4650710380
 Cd        10.1208216889        2.9315512394        9.8788736002
 Cd         0.6405029380        8.7636241657       10.0216909822
 Cd         9.9732779507       10.1516075162        5.8697005058
 Cd         3.8494636190        9.4987586361        8.1380574042
 Cd         5.2109637678        9.1032854262       12.2015761047
 Cd         9.1340203305        6.0684096341        1.5463120077
 Cd        14.3283478020        3.6340711861        4.6204977060
 Cd        11.4028726396        7.6383376669        9.3861746428
 Cd         7.0937416980       12.0638337956       13.6779223215
 Cd        14.7177411251        5.8538616662        2.2286788348
 Cd        13.2155876646        2.8522408706        8.1325234318
 Cd         5.4184861049       12.0989263627        6.2799454372
 Cd         5.5174786311       13.2258667708       10.9049020578
 Cd         9.1659015101       14.7258982692       11.5303134799
 Cd        10.1864401675        9.7767403178       -0.8735147861
 Cd        11.6494446994        6.6010529610        5.3288451803
 Cd         9.0976640624        8.4505072478       12.0699983671
 Cd        11.5148169587       11.4910937676       10.1279779686
 Cd        12.4881108165        8.2079104848        2.2483782530
 Cd        15.0059777869        8.0776150936        4.7734432501
 Cd        13.0618280490        8.5089381418       12.2866484381
 Cd        16.6541234058        9.0895301746        8.5435969186
 Cd        14.5243366463        5.9647165051        8.3742953128
 Cd         9.5193359926       14.6485913002        4.0092217100
 Cd         9.2677716881       13.7938506146        7.6381840600
 Cd        12.7768521310       13.7901785349        6.2334450420
 Cd         7.5152964042       10.5112097407        9.1792857117
 Cd        16.3896534322       11.9595786440        6.6721387472
