426
 i =     6200, time =    12400.000, E =     -8405.9324029114
  O         8.1285867351       -0.2465324178       17.5089394986
  O        14.2756697188        0.5710684697        0.3783835692
  O         4.8063117451       13.3347351265        1.3104478777
  O         2.7229911545       16.0109666045       12.9460146823
  O        11.2437073082        3.3663389498       16.2668500164
  O        18.2988208043       15.2473377548        2.5922694101
  O        17.8819875405       11.8375324750       12.9204148907
  O        11.3799918149        0.9534847918       13.6539808947
  O        11.4435185347       13.5829585250       14.7683114289
  O        -0.4086296972       -0.4697206581        1.6247635529
  O         2.9686838617        4.6144409834       12.1823342394
  O         9.2018749476       13.1834830949       16.3538386807
  O         4.6377699400       16.2049473597        5.3565303687
  O        13.6443770633       16.9017998369       16.2081656039
  O        18.3691377374        1.0921312063        9.5371730734
  O        16.8939585880       17.4466339308        4.0096503373
  O         5.9833985600       17.8826853389       14.7373686790
  O         4.5949264284        0.4958149523        2.1549469340
  O         2.2413913588        9.6794747727       -0.5559492672
  O         8.2567192507       14.8948094524        2.1557527537
  O         0.2105994166       17.3069591000        3.5681860477
  O         1.1299890703        6.6437224999        2.8527389801
  O         8.5020958046        2.4065379375       16.9986737208
  O         9.7799502072        1.0504712711        3.9810667561
  O        12.7230650723       15.7122790240        7.0863580135
  O         0.6080751066       15.1311981109        5.3084974349
  O         5.0573876814        0.3516477176       10.8331354839
  O        18.7011791371       18.0853142237       17.0877577378
  O        17.6376056459        3.8189767830       -1.4998210528
  O         6.7154057247        2.0209313151       12.0821456179
  O         3.2140479026        9.8254233505       15.6839586578
  O         7.1384163697       13.6533291550        0.1377889611
  O         1.8474543784        4.6864395314        1.1572250828
  O         4.6432729526        7.6943335943       16.5241099511
  O        15.9050659329       16.1512983196        8.3308729569
  O         1.4330684567       16.1362043831       15.3812512212
  O         4.5740921408        0.5617449928       15.8217456222
  O        15.6044804861       18.3628247772        6.0346963101
  O        14.9503396060        5.8359136916       16.5472968719
  O         1.7586644856        4.0871225653        3.8127292535
  O        14.8967668468        8.0675278432       -1.5944079018
  O        -0.2812573889       14.1604870484       12.6346211111
  O         2.0322223229        4.8532587695       -1.4920764060
  O         0.1222470027       11.7558692573        3.0805100129
  O         4.5065654288       -0.4358451723       -0.2922202513
  O         0.7474194980        4.7573152617       10.6707735755
  O        10.1625412121        0.5616040227       16.0567492223
  O         4.6346601863       17.1007312921       11.2743518863
  O        16.6244673381       12.4706210796        4.5625010648
  O        13.0325168367       16.8234851455        2.0263485488
  O        17.2562642949       -1.2196922203        9.6665033593
  O        16.4115101953        4.1310946452        1.5736501550
  O         3.2202648113       16.6078302212       -0.3773451470
  O        -0.2775826653        5.4782413405       -0.2065659903
  O         4.1075885481       12.5439035659       15.7729234094
  O        14.3857480540       14.7288323038       11.7532109779
  O        18.1925862397        2.0273998451        1.1144624567
  O         7.0330059783        0.9169448925        7.9051938563
  O         2.4459070800       14.5200123621        1.1419088883
  O        18.9269984219        4.3351930538        2.5250498124
  O        12.3958287181        7.8596135822       16.6832868117
  O         8.3981322000       -0.6188560596        2.3892965231
  O         6.2741630541       18.0190244985        9.3003536810
  O        10.3752141251       10.7962253285       16.4365091805
  O         3.6036309453       -1.2968419660        7.2308712514
  O         0.4589241665       11.2549067350       -1.9179818899
  O        12.6892719423       17.0914301490        4.6575216311
  O         3.3133996747        3.4735548055       14.7505882386
  O         3.4200858029        2.0287090849        0.1505345106
  O        13.9348150504       13.5252904384        4.5591362679
  O        18.1917919553        2.8674154474        5.9055043881
  O        12.3346251912       14.7781249976        0.4713470238
  O        18.9736133550       -0.3961422664       11.5305737867
  O         5.8878202364       11.4146935733       -0.2051012080
  O         8.7014078880       -1.0514695153        4.9682393176
  O        16.3773840536        0.6305276794       11.4043463353
  O        14.8707076244       -0.3277272818       -1.9585879348
  O         6.0215446051       -1.0922205166        6.4655484502
  O        10.0605671322        1.1560530565       -0.6441812786
  O         4.1386932453       -0.6501651095        4.5375940663
  O        17.8180248945        5.6098009839       14.2651601863
  O        10.6445875867       17.3645325472        6.5282979652
  O         5.0015123609       13.7107020774       -1.3415865150
  O         2.6010577351       16.3509265622        3.8844068686
  O        13.6411502611        3.7535595758       -1.7335391394
  O         5.2573328786        6.3607971922       -0.6558273987
  O         6.1492466644        1.6476344189        0.2809746127
  O         1.4911961864        9.3545079858       13.0791832866
  O         8.3101476022       -1.3400308671        7.5171158330
  O         3.7179637735       14.5187800902       10.9953608311
  O         1.0056063024       16.8420297648        1.1277077651
  O         1.8513363709        7.8800409664       17.0053897244
  O         9.8777791893       13.7770238594        0.2162789066
  O        16.9069517262       10.7844999774        9.5991718238
  O        17.4872140306        1.5404931167       16.1124907560
  O         9.8731331999       15.6545929479       15.5966461510
  O        14.5393897099        1.3556150324        7.0410163612
  O        11.0456884119       17.8288022711       14.6985660196
  O         8.4577757663       17.1938720773       13.9956735020
  O         7.1084128692        7.1318513587       -2.6686757986
  O         3.8237574209       14.1552129448        3.4800284467
  O        10.4731160697       15.7240094924       12.9718814042
  O         1.9828990230       -0.6573857117       -1.6360916261
  O         4.0053044294        2.2304261026       12.3087196413
  O        15.7252789435        3.3909846970       15.9604091251
  O         3.3562677658       17.8699888302       14.5732119169
  O        17.4696834562        0.4428070839        4.9766203288
  O        17.3844168213       -0.8743185737       13.8183900245
  O         8.2098667311       11.0705957271       14.9184444185
  O        14.0687290101        5.8648087711       -0.2100542282
  O         5.1407962340        3.0679924877       10.1682206280
  O         0.4846589212       17.2371177222        8.4531218966
  O        13.0493374974       18.4546399763        6.7938049340
  O        11.7437033862        5.7373432315       -1.4041072381
  O        14.9198065424       -0.6346785649        8.6440565051
  O        16.7361681569       16.7684258657       15.8569904975
  O         8.2509002851       16.0477788417       -0.3433690931
  O         0.6809840942       13.4486548612       16.1257200664
  O         5.5240065399       10.6256809798       16.5711504836
  O         2.1619158964       16.7969298158       10.4757805956
  O         5.1255621978       16.2737289431        2.6744339348
  O         1.4926801837        2.7392192799        5.9418280296
  O         1.8187766951        1.4386690523        9.3284925910
  O         8.1666593227        4.9646106409       15.9086529834
  O        15.2468633901        8.0761896885       13.2555997668
  O         1.2197306426        8.3643308427        4.9339361494
  O         6.0893032582        3.6069400045       16.6767370362
  O        11.2588120785       14.3589066596       17.3898995899
  O        16.0586730778       14.9557552856        3.9089523226
  O        17.8177123021       12.0579576077       15.7000776026
  O         0.1711715246       10.4660815080        8.8568156089
  O        11.5947408503        5.7650602169       15.1858588891
  O         1.1540586732       18.2718867331       13.6634118796
  O        18.8590142036       12.4903394431       10.4711690667
  O         1.6754248353        7.0574454715        0.1387046765
  O        18.5301055281        6.1281002042       16.6335437024
  O        -0.0144244673        2.8843277879        8.0952925542
  O         2.7476835445        7.3546697753       14.6785722136
  O        -0.3979669169        0.8958402042       13.8533467078
  O         1.1036781003       11.9366679768       12.4395981781
  O        14.4629201754       11.9113480310        0.1534073050
  O        10.8304819235       18.0023972222        3.0681518846
  O         1.5718528966        6.8224543325       12.2985111523
  O        -0.1221759065        0.6825410704       -0.6372031802
  O        18.7039885296       15.4552550355       16.5568547676
  O         0.3765321030        0.3115782664        7.3975837978
  O         7.7437926235        0.3969565968       13.9510966045
  O         9.1304743361        2.3200852168       12.6355702676
  O        18.7618752845       16.7019774039       12.8842854329
  O        16.7185041447        6.3120333959       -0.8483856831
  O        15.1736080908       -0.5889686145       14.9086473031
  O        14.0122567201       12.6060992209       16.9266837449
  O        16.0806337246        1.8075519954       -1.1545411665
  O         0.1873140459        7.5933615920       14.5333086672
  O        17.5259975501        3.5749636905       12.7627181491
  O         1.4000750292       17.6328519600        5.9145334229
  O         2.7756932191       11.9066547945        2.4693449755
  O        13.2655490225       10.2004324221       -1.6995804737
  O        16.9209954827       15.2397500498       11.4601144181
  O         4.3585639096       17.5791921459       16.8831642698
  O        14.3293320202       16.2322304125       -0.2187202167
  O        12.0540000067       12.2436880957       -0.5569535267
  O         7.6681958761        2.9644562897       14.4822400702
  O         6.8211029497       18.0644459802       12.0397916708
  O        17.0947752592       11.8992110750        0.7228832136
  O         2.8117771753       14.5606858338       16.7077749255
  O        16.1298756927       16.5404962950        1.6370890629
  O         2.1126283253       -0.4963707038        2.5625640005
  O         0.6276720338        4.7470598640       13.3456410430
  O        15.0059121077       17.1388673319       10.7149440603
  O        16.9798771882        7.9823584435       15.3727166680
  O         8.0203640113       10.8912938227       17.6687557984
  O        16.4315981813       10.2646495875       14.2028368779
  O        16.9647225463       16.4449415839       -0.9573266861
  O         0.8468650695       11.4849574859        0.6463739061
  O        19.2776720492       15.5395305085       10.3692774805
  O        19.5629613819        5.0996541757        6.5368777388
  O        16.8081907770       -0.2609222322        0.2069270936
  O        18.1620439506       -1.5987031145        6.5022908068
  O        18.0411966302       12.6193585106        7.9774913027
  O         1.0469740025       15.2929747844       -0.9850026959
  O         2.7604764804       12.2468419308       -1.2252600254
  O         5.4733350005       10.6048558398       14.0613373103
  O        11.3101545088       15.1747277602        3.2144719908
  O         6.3263835851        8.9145630522       -0.9764006311
  O         3.1745464182       11.3782279274       13.7526425291
  O        17.1753066651        2.5763467931        3.5169198176
  O        12.8070129125        0.0517328811       15.7286379439
  O        -0.8699418512        8.4555299393        3.0928365694
  O        15.8498257502       12.8989293344       14.2716985647
  O        15.2833955230       13.0523094921        2.3055483642
  O        13.4748873000        4.1281766106       14.9292565968
  O        11.4815645028        2.4197197710       11.3226245781
  O        19.1775255541        3.2479166837       15.0113321514
  O         9.8397506828        6.9969203817       16.5559789138
  O        10.9936076335        3.7153532334       13.6387264268
  O        15.7295010527       16.5517757047       13.4042177239
  O        11.7894532758       17.3675717493       -0.2541805334
  O        -0.2488524803        8.6480626195       -0.7074069176
  O         0.2642978564        1.7524556561        3.8787781393
  O         5.3619057633        4.3600357156       13.2358896830
  O        14.4473890160        9.2806125258       15.4767583726
  O        16.0207427970       14.2285675582        0.1169551160
  O         0.6830993150        0.9941782830       16.2639293465
  O         1.7430248151       14.8766313841        8.4874774096
  O        12.3226379747        3.8732401822        0.5059278295
  O         0.6639884591       10.9837457302       14.8301916145
  O         8.6016015028        5.5740534933       -0.9126313379
  O         2.8897181117        1.6226876003        3.9308870700
  O         1.6226306951        9.4871085942        2.5328016984
 Na        10.3595830728       11.0583545485       14.0757021697
 Na        18.6957935056       13.3553724837        1.2990935224
 Na        14.2441210472        2.6958599136        1.0798476333
 Na        17.7068449357       10.2969703559       -0.9713026766
 Na        18.4904665135        6.6398134177        5.3255264260
 Na        11.9746058042       -0.0482251837        0.7476061931
 Na         6.1770146654        4.0700619797       -0.2504011493
 Na        12.4957238483       14.6617071339       13.0260222202
 Na        -0.0546479309        5.8330037122        8.7948817159
 Na         0.6224533363       13.6879397313        6.8715618604
 Na        13.4093271175       10.4322697881        8.0022778240
 Na         5.6677499429        5.4802418208       15.2262213472
 Na        10.9627941850        3.3409906782        2.5245888428
 Na        14.2160965749       -0.0774653505       11.4490150625
 Na        16.4365019172        1.6065888628       13.3889598757
 Na         0.6198378580        9.5824101191        6.8269815831
 Na        10.0829733450        3.5581369050       -1.0860917187
 Na         3.1774465154       13.7451240981       13.7169327413
 Na         8.3776685421        6.4232525432        7.4215037066
 Na        17.1489726848       14.2717790737        9.0737882126
 Na        -2.8793673318        9.6217323692       11.5849930583
 Na         8.8604909634        4.9157343199       13.5367752076
 Na         3.6483473624       15.7611668665        7.7115831012
 Na        16.2077211501        5.7590445412       12.5746347345
 Na         5.6977098745       16.8746857351        0.5242993033
 Na         3.1759589031        9.9285358840        4.2564297166
 Na         2.7479793475        3.3926852578       10.0552825966
 Na         1.3916652933        2.4817325043       -0.2916338698
 Na        18.1552006315        7.2765172999        1.0945522074
 Na         2.0348561797       12.9257961431        9.8381050134
 Na         6.6106219410        9.8418353122        1.7402640791
 Na        14.7873920894       14.6601684737       16.6439179703
 Na        13.6152842371       15.5006828644        9.3694211895
 Na         7.7915685300       16.1711579112       16.7827333962
 Na         7.2874380249       -2.4100911146        2.9844237366
 Na        12.2676683293        1.7331168329       -2.0072340268
 Na         6.1360381979        1.0227464209       -1.9773061847
 Na         2.6776055957        6.2694284713        5.8976228946
 Na        15.2191800012       12.5878661569       11.1941816932
 Na         6.3302393632       14.0054646711        3.0267174352
 Na        14.8094605343       18.3841306803        2.5684439389
 Na         3.9748398143        7.1567073896        1.1308335639
 Na        -0.6830089812       13.6249860675        4.3160674129
 Na         2.7381187051        1.1370581723       14.7932931482
 Na         3.1857024070        0.8650779845        7.1005622380
 Na        13.4916284056       11.9598106153       14.9056002230
 Na        14.9332632185       15.8854667129        5.9195253918
 Na        16.6196294267        2.3451859357        7.6894684865
 Na         9.2211438055       -1.4034333291        0.3881549245
 Na         7.3301094555        1.1559984301        5.3101815990
 Na         7.9995911287        1.4885292088        1.4088636269
 Na         3.9458876122        3.2257942766       17.1307834176
 Na        18.4353494913        3.3069145458       10.7855529975
 Na        12.5854654414       13.2385014626        2.6957352807
 Na        11.6298429084       16.7687341746       -2.3655943768
 Na         6.9928525389        9.1681243932       15.1504524387
 Na         2.0374813247       -0.3987176745       10.7416228720
 Na        17.3583949880       10.7070721485        2.8637103508
 Na        17.7194527467       14.6852856578       14.7409853542
 Na         1.7518988500        5.1268899686       15.5583125221
 Si        -0.3543046809       12.5715554763       12.0769503489
 Si         3.4954639002       18.0653458730       -1.1807851799
 Si         5.6791692039       13.0178432862       -0.0310655921
 Si        15.1508132074        6.4799138241       -1.2979952259
 Si         0.7049262048        8.2489371319        3.4364107703
 Si        11.9184732293       16.6782665237        3.2992302741
 Si         5.6833647240       18.2638215940       10.7810287794
 Si         1.6415571054       11.1769781657       -0.7548356960
 Si         1.1605773274       16.4644237688        4.7085638378
 Si         3.6554830296       13.2947226335       17.2146159930
 Si        15.4679336962       15.8692254419       11.8373547254
 Si        18.3021758430       11.3851009562        9.0942821205
 Si        18.2007253096        0.4747261477        0.5826867170
 Si         8.8667724462       11.4938159373       16.3717321487
 Si         6.8490183966       -0.6789330267        7.8445853929
 Si        15.8726978628       15.8313579569        0.1715194123
 Si         0.3977781712        1.3305192594        8.6657289033
 Si         0.4045054077       -0.1696963995       -1.9357127485
 Si        18.2229209836        6.9038808900       15.1970858154
 Si         9.4673293235       -0.4538340215        3.5275772164
 Si        15.3913763722       13.4039327501        3.8977478746
 Si         5.7740534928        7.4558928127       -1.6864625814
 Si         4.6371807737        1.1572692639        0.6266917807
 Si        10.7733312266        2.2954300898       12.7602787037
 Si         5.2782361981        1.8934154119       11.3036598791
 Si         3.3690879542       16.0340121590       11.3537774790
 Si        17.0143358459       16.0138001051        3.0308441082
 Si         1.4004244874        5.4941487094       -0.2371822592
 Si        11.3642330627       13.7833294156       -0.4396744304
 Si         1.9039805501       15.8863873902        0.2353359138
 Si        13.5644191624       11.8502254500       -1.1953072853
 Si         1.3171063734        8.3683403040       -0.8610344049
 Si        17.9805096553        5.3889999926       -1.3715099437
 Si         8.4562255510       14.6711922329        0.5681231070
 Si         1.0878353111       14.9848191703       16.6802386832
 Si        17.8300692344       16.6895058375       17.0375941319
 Si         3.4428931516        0.2220955921        3.2673844382
 Si         7.2064874441       18.2488161721       13.6596552057
 Si        17.6529966951        0.0357141902       10.6510739017
 Si        14.0759588519       -0.9924641916       16.1235958110
 Si         3.3234664494       13.4291864852        2.0791293650
 Si        12.8746454168        4.7960892336       -0.6146153116
 Si         7.7516643470        1.8691499160       13.2759901427
 Si         4.0950225708       15.7863402517        3.7822218943
 Si         9.2022597268        0.8760036484       17.3909441711
 Si         8.4564280009        6.1607873245       -2.4401414241
 Si        12.2386041765       16.9967479249        6.3419271528
 Si        16.2349609797       17.6356019565       14.5277720837
 Si        17.0889374621       -1.0445419436        5.3733046740
 Si         1.6614642347        2.5242834901        4.3347324595
 Si        10.0154023867       16.6326503931       14.1866937377
 Si         4.6183196907       -0.9759392188       15.4628770550
 Si         7.5411788224        3.3630130835       16.0874158077
 Si        14.4127349574        4.2973182133       16.2718942036
 Si         9.0759168942       -1.9469824643        6.2982496948
 Si        18.5381002395       15.4837407818       11.8268846106
 Si        15.4161910128        0.3706928319       -0.6523858750
 Si         0.0990209076       12.0010266024       16.0294032487
 Si         0.7505836280       17.9997807379        2.3118455796
 Si        15.8034567362        8.7864490368       14.5798677463
 Si        11.8039744091        4.0938648709       15.0241357709
 Si        18.0890747817        1.8708823217        4.5943342867
 Si        18.5573653744        4.1806877218       13.7770776964
 Si        15.8798091770       17.4422022930        9.2127427367
 Si         1.4470838401        5.2229889873       12.0325810829
 Si         1.6511114840       10.9192490934       13.5528154404
 Si         0.1881344768        3.5169079456        6.5901048091
 Si        18.9844183005        1.6730944675       15.2789170214
 Si         1.5201373295        7.8234372644       13.6187177187
 Si         4.2801746780       11.0194811439       15.0960433633
 Si        16.7461672485        2.6062356465       17.0629708711
 Si         0.2811651428       -1.3159551067        7.0475712750
 Si        17.7359076059        3.2551563333        2.0991286689
 Si        14.5145086872       -0.2280049108        7.1214883525
 Si         2.1155039468       16.9747136534       14.1089989123
 Si         4.4839503354       -1.5349043943        5.9016205603
 Si        10.4972303134       14.0890090748       15.9057308019
 Si         6.3360543985       10.5063838055       -1.4708417897
 Si        -0.4628137495       18.5086357424       13.1696439037
 Si         1.1082805874        5.0035315186        2.5829651673
 Si        12.7835919345       16.3665135737        0.3737843136
 Si         3.1514736119        8.2716844852       16.0454360357
 Si        16.9256501651       11.7830301258       14.3359578860
 Si        15.7334562618       12.7370557215        0.7726357148
 Si        11.2930450250        0.0761634132       15.0199728590
 Si         3.9018296140        3.6934897356       13.2772356721
 Si        11.4201698959        6.5388035553       16.5991779984
 Si        13.7020901908        8.8265035564       16.8950224399
 Si         1.2532442434       11.0934271380        2.2320589200
 Si         1.0840396111       16.0585539496        9.3521404189
 Se         8.2224152965        4.6361955743        9.7005722397
 Se         4.8830254526        7.3915791681        3.7736007616
 Se         5.3114066023        3.3126806384        5.9401327177
 Se        10.9988437830        6.7958503392       11.7794403465
 Se         8.3517200039        4.5277693888        2.5600223521
 Se        11.2560108947        1.1586067146        8.2595360391
 Se         3.9994714324       10.9469054357       10.5498734259
 Se         9.2245863866        7.5625868333        4.7999423460
 Se         2.4991362295        7.4895073278        8.5351495133
 Se         8.3936064700       10.9380467455       11.4437397511
 Se        12.5374865523        5.7432208349        3.1236024494
 Se        11.5996821311        5.2236464175        7.6052871810
 Se        14.0532775607        8.2074057071        9.3974334575
 Se         6.8203046754        7.4057999620       12.5729059340
 Se        13.3835394878        1.6320647271        3.6366528596
 Se        15.2929456757        3.8714712037        9.7967739801
 Se         6.9578600429       11.2833380847        4.4637727089
 Se         2.9826849485       11.6665048424        6.7857559767
 Se         6.9055580840       12.8967966007        8.3247423484
 Se        10.1291120388        9.1220734667        1.2896151574
 Se         6.2890300562        8.3128308549        7.9056454318
 Se        10.3414752621        9.6710546239        8.3987458449
 Se         6.8078957795       14.6758903974       12.6554418609
 Se        15.2151404598        8.5987606556        1.8838183851
 Se        12.7438175529        9.3275811316        5.2570948404
 Se        17.9722334006        7.2741125990       10.5046335168
 Se        12.7561847425       10.9168065102       12.2725047187
 Se        15.5483945344        5.6788967386        5.7934544556
 Se         8.0991750231       15.3323583236        5.9483236087
 Se        10.7623742093       13.9768441764        9.8175951021
 Se        10.6121041133       12.4437368564        5.4589200678
 Se        14.3966779383       12.8689927157        8.1513934252
 Se        17.0347412555        9.2103748143        6.3021583869
 Cd         6.6960339807        8.8141634453        5.2716449886
 Cd         6.4066188608        4.9738676884        4.1032467849
 Cd         6.4166603014        2.9388445836        8.2487591231
 Cd         6.2613626513        5.0002679504       11.2971360014
 Cd        11.5889574137        1.1272877510        5.6115424404
 Cd        10.2265562675        3.0798743570        9.7192260728
 Cd         0.8026551086        8.4637765144       10.0532579403
 Cd         9.9506437813        9.8519578158        5.6422041915
 Cd         4.0247229097        9.6276567565        8.1327933470
 Cd         5.2017152185        9.3129418026       11.9378031527
 Cd         9.2921123158        6.5573902668        0.9330072167
 Cd        14.3709759478        3.5892342829        4.8734179525
 Cd        11.4994087591        7.2729634607        9.2179629050
 Cd         6.8648433883       12.2887446835       13.5354355856
 Cd        15.1720264994        5.8802919010        2.1720439111
 Cd        13.3893263909        2.4271870590        8.9560021477
 Cd         5.4537259772       12.1125974988        6.2396029680
 Cd         5.5090083397       13.1621452391       10.7275679775
 Cd         9.1557288322       14.4872134024       11.6939586331
 Cd        10.7508774997       10.0434707372       -1.0016123036
 Cd        11.7900128538        6.7477431170        5.4118116377
 Cd         8.9605175720        8.3556649065       11.6135312687
 Cd        10.9190779417       11.4262065680       10.4093379645
 Cd        12.4562027607        8.4729968902        2.5193698152
 Cd        15.1414487507        8.1822017919        4.6866864476
 Cd        13.2421806309        8.2765525915       12.1484254728
 Cd        16.5945804320        8.6140120177        8.7032109783
 Cd        14.3980237097        5.7292349567        8.2204513408
 Cd         9.5865662411       14.3461093976        3.9373411294
 Cd         9.4055507103       13.5701904081        7.5347360172
 Cd        12.6734173181       13.4226235098        6.4251303282
 Cd         7.7484948140       10.4571066058        8.7550038484
 Cd        16.3492305277       11.8703182283        6.6225524713
