426
 i =     8600, time =    17200.000, E =     -8405.8763215931
  O         7.9407161061       -0.0694663830       18.2679917507
  O        13.8006674179        0.8756641060        0.4656270614
  O         4.5468700045       13.4861457147        1.3768589182
  O         2.4788038357       16.5451701676       13.0685254746
  O        11.0642476189        3.2402549541       16.2242944373
  O        18.0384145863       15.3917965638        2.6943727096
  O        17.4645007882       12.0577155730       13.0689070783
  O        11.0842604134        1.0658103363       13.9939905046
  O        10.9824223234       13.5969786163       14.9290442674
  O        -0.6827933394       -0.0272357806        1.8557850607
  O         2.8004104464        4.9975807799       12.2946285114
  O         8.8784658469       13.1216477055       16.4733763719
  O         4.3484634988       16.4991677705        5.4290203131
  O        13.1564186812       17.2203119481       16.5362321275
  O        18.2660070109        1.3971198909        9.5684605705
  O        16.6150829072       17.5981963944        4.1084820110
  O         5.8605785963       17.9547401452       14.9151858188
  O         4.1143810527        1.3277318940        2.4598232419
  O         1.9663291512       10.0195691568       -0.7339148221
  O         7.9010079572       15.2188395311        2.0307945199
  O        -0.0717072178       17.6859880170        3.7308026310
  O         1.2152192868        6.7377929584        3.1651123517
  O         8.1280377328        2.4437187250       17.2484325620
  O        10.0991251683        1.1424944267        3.4389805170
  O        12.8716318120       16.1270642394        6.9810937277
  O         0.2721851083       15.2869310617        5.3124907050
  O         4.7161080585        0.5436123686       10.8583031412
  O        18.4036866930       18.5115745675       17.2747476183
  O        17.4809282980        4.1191125628       -1.8258211490
  O         6.4456533470        2.0855476798       12.2148081885
  O         3.3670083980       10.0578415794       15.9700820868
  O         6.9712798142       13.7122605939        0.1400973281
  O         1.4633357754        4.9265053316        1.1078215059
  O         4.3388208434        7.5041043806       16.6042544327
  O        15.5689454609       16.2501170494        8.7929823128
  O         1.3278335191       16.6006499541       15.5649378705
  O         4.6911467536        1.0396988992       15.7720677829
  O        15.4322352235       18.6439126755        6.0803399197
  O        14.6153170423        6.0793488334       16.6399303658
  O         1.7550549078        4.2315798126        3.6408521313
  O        14.4672221417        8.3214889013       -1.2746997087
  O        -0.7087254010       14.5638495946       12.8598707341
  O         1.7163130828        4.9607834960       -1.4846605371
  O        -0.1617318068       11.8960707502        3.0118330794
  O         4.0646314072        0.0659981692        0.0180779460
  O         0.7664694184        5.0017511431       10.6686444054
  O         9.6837381216        0.5084066130       16.2773928898
  O         4.3828163443       17.2763020865       11.1390929654
  O        16.4881627748       12.6939511111        4.7141310176
  O        12.7533265651       16.7700367258        2.1908803971
  O        16.9515314757       -0.9255005507        9.5763655485
  O        16.1091084040        4.7075251487        1.7232036483
  O         3.1250190724       17.0394851712       -0.1164326455
  O        -0.5318360755        5.6919167799       -0.2688120883
  O         3.7062701421       12.9107765629       15.6960729912
  O        13.8792356064       15.2360110042       11.7723218564
  O        17.9304463562        2.6036649235        1.2498290497
  O         6.2440136410        1.1211625258        7.7462289354
  O         2.2033294376       14.6857604794        1.1353290591
  O        18.6024239538        4.9611320952        2.6265457766
  O        12.0689885725        8.2008659820       16.8923103287
  O         8.1970529532       -0.3817240550        2.2934861592
  O         6.2150747367       18.2373353733        9.4590926960
  O        10.1679092433       10.7387544704       16.6931856191
  O         3.5690506417       -1.3156553967        7.4682997443
  O         0.1016685064       11.7608102828       -1.8865661247
  O        12.5433033397       17.3951856395        4.6703277922
  O         3.2420237841        3.8563237733       14.8271310370
  O         3.1611682917        2.6364893866        0.0258009897
  O        13.9144387107       13.4665840873        4.7303517219
  O        18.1254919058        2.7319649349        6.1513694690
  O        11.9341856076       14.8914372648        0.3805932660
  O        18.5689901731       -0.1431511236       11.6822727347
  O         5.5172602422       11.6158133221       -0.1792741314
  O         8.7788282968       -0.7100003364        4.8805845496
  O        16.1708083441        1.1511713504       11.1506381078
  O        14.7124663298       -0.0307223384       -1.8253734632
  O         5.9222328165       -1.1165328118        6.5090856960
  O        10.1073955492        1.5539145510       -0.6117686886
  O         4.0615835955       -0.3701852508        4.6894041701
  O        17.4847903062        5.8768364004       14.3458390608
  O        10.5189046846       17.6706644898        6.5689367382
  O         4.7944721297       13.9801289785       -1.3757676420
  O         2.1751226735       16.6613379360        3.8785721185
  O        13.4412254846        4.0103306574       -1.8021810743
  O         5.2707374227        6.8033469160       -0.2774677493
  O         5.7027206006        2.1670803005        0.5113896683
  O         1.0517099433        9.6936511725       13.1204839859
  O         8.1730152937       -0.8018734975        7.5072810976
  O         3.1847200474       14.8790687384       11.1450810003
  O         0.8713989556       17.2345615873        1.2640139670
  O         1.5696568262        8.2223075461       16.9300869227
  O         9.5765053446       13.8264120986        0.5120609789
  O        16.6056256926       11.0901133501        9.8905818741
  O        17.2412754989        1.6920522740       16.1756696835
  O         9.5870171020       15.7645462067       15.7396116348
  O        14.4291789644        1.6395906497        7.0159188830
  O        10.6554272975       18.0057080103       14.8460401441
  O         8.2295308727       17.2927387317       14.1638368774
  O         6.9171104129        7.1317004029       -2.4189448520
  O         3.5907238495       14.4694541774        3.5225825942
  O        10.2898822366       16.0366201454       13.1306864472
  O         1.7367383813       -0.4460141656       -1.5377443228
  O         3.7397759305        2.4708642497       12.5570700999
  O        15.5012419814        3.5755753023       15.8228995310
  O         3.2076784735       18.4508324059       14.6479594890
  O        17.2597753859        0.6537745791        4.7864585110
  O        16.9996043480       -0.4631893098       14.0058627023
  O         8.1907612144       11.1421957754       14.9479686512
  O        13.7624110532        6.0868512690       -0.1680441285
  O         4.8148054315        2.9929259199       10.0990339270
  O        -0.0125361583       17.4216724642        8.5497706452
  O        12.8576900926       18.7873738291        6.7744175712
  O        11.5203449587        5.8983703739       -1.3381253061
  O        14.5314965245       -0.5226601206        8.6708150051
  O        16.4526779046       17.2607950299       15.9407137044
  O         8.2606104533       15.9391758410       -0.6716108659
  O         0.3992072983       13.9609344838       16.0574608188
  O         5.3189955772       11.3112695376       16.6153696976
  O         1.9318128732       17.2283109626       10.5042550599
  O         4.9296089305       16.6990696532        2.8686330729
  O         1.3073673208        3.5140901581        5.9639245612
  O         1.6301618047        1.6196724168        9.5893504334
  O         8.2260433043        4.9867672089       16.1276043677
  O        15.0704437567        8.6726398774       13.3726349806
  O         1.2627397933        8.6805562401        4.9140445559
  O         6.0222660201        3.9113026327       16.9846326273
  O        10.8968110954       14.4854351096       17.5276116812
  O        15.8067648787       15.2401739221        4.2630827599
  O        17.6838164905       12.5055786818       15.7564926389
  O         0.0479703960       11.2536465058        9.3109219240
  O        11.1875936297        5.9272441316       15.3893651415
  O         0.7833740917       18.5468165694       13.7056371603
  O        18.2523684749       13.1726303431       10.7667679773
  O         1.6191499610        7.3259002225       -0.0524274880
  O        18.3889329217        6.4313181570       16.6428427562
  O         0.1261223108        3.1277216195        8.1971823915
  O         2.5552562778        7.8751236651       14.6681429228
  O        -0.6051286033        1.0512455472       13.9314528184
  O         0.8334082824       12.2824002853       12.4228129725
  O        14.1379859372       12.2220052221        0.4300470170
  O        10.4368584212       17.9109757421        2.9654357426
  O         1.2975075353        7.2412499359       12.3675542309
  O        -0.3244603882        1.0431352769       -0.5240186278
  O        18.5020626420       15.9511117148       16.6746609319
  O         0.3335203008        0.4831990594        7.4737615594
  O         7.4852428383        0.4548993240       14.1252082422
  O         8.9285745079        2.3451936490       12.8337780805
  O        18.3212794962       17.0231192835       13.2462908393
  O        16.3810038595        6.5254027080       -0.8513994449
  O        14.5530103812       -0.3969492691       15.0057493893
  O        13.6452376363       13.0340130345       17.2938158959
  O        15.5507092531        2.3936450403       -1.1286807300
  O        -0.0787481776        7.8058068587       14.7009555412
  O        17.2306793893        3.8086782385       12.7377686620
  O         1.0339170417       17.7226987722        6.0396021094
  O         2.3953405251       12.3545960501        2.5527946187
  O        13.0868920568       10.5023199193       -1.3178968373
  O        16.5698339544       15.6129559657       11.6218397432
  O         4.2578877459       18.0351207867       17.0816873228
  O        14.0336145635       16.4096973150       -0.0379942652
  O        11.6571595857       12.3670479062       -0.3299267003
  O         7.2881563537        3.0035566960       14.7052450603
  O         6.6036528718       18.2062296395       12.1937746761
  O        16.7498152661       12.0003351651        0.7164428444
  O         2.5436371524       14.9634607807       16.8929780196
  O        15.8468018532       16.6488871876        1.8678944446
  O         1.8558471196       -0.1946962054        2.8614705752
  O         0.3735389661        5.0118092771       13.3270088418
  O        14.8501482145       17.5953399495       11.0090324112
  O        16.6318701064        8.2047368818       15.5196312795
  O         7.6527346878       11.0840923190       17.6583569034
  O        16.2697412906       10.5396331939       14.7989183905
  O        16.6072740716       16.8182856265       -0.7973566342
  O         0.7271714484       11.8778233800        0.6573586427
  O        19.0068114205       16.0850038410       10.8065793499
  O        18.9243777957        5.2737927649        6.7157844494
  O        16.5098305924        0.4851628858        0.2620363482
  O        17.8559763805       -1.2710160146        6.5620909725
  O        17.6560625666       12.9561680881        8.2026420852
  O         0.8617360859       15.5771519171       -0.8537458429
  O         2.5192967778       12.6152124672       -1.2543775826
  O         5.4543189199       10.9356628284       14.2289674665
  O        11.1312697750       15.3067037694        3.7428940739
  O         5.8197015622        9.1857788391       -1.1816296762
  O         2.9727719642       11.4312606321       13.8065477323
  O        16.9809060304        2.9980555265        3.6914908440
  O        12.2662024758        0.2202052743       16.2835766341
  O        -0.8342949097        8.4436753845        3.1903216563
  O        15.6283702225       13.1626289943       14.5842606940
  O        15.0290598410       13.5585724854        2.3667818375
  O        13.1903867822        4.4312131717       14.8511752636
  O        11.3508962123        2.1554380421       11.5524828116
  O        18.7741252826        3.5222343796       15.0535629249
  O         9.4893361940        7.2527418692       16.8372133193
  O        10.9130611945        3.7539743664       13.6612330866
  O        15.1515351057       16.9767417499       13.5508993165
  O        11.4778428216       17.4974361244        0.0043233127
  O        -0.4214218926        8.8482756867       -0.7470936785
  O         0.0915149074        2.1267718602        3.9728183908
  O         5.1921491202        4.6774216101       13.2153722138
  O        14.1261461570        9.3744249898       15.7477110001
  O        15.8433898023       14.5144947935        0.1608617660
  O         0.4196582668        1.2030379106       16.3607595263
  O         1.0802287979       15.0210880655        8.9106077223
  O        12.0468673254        3.8508214624        0.3012310205
  O         0.6638390232       11.5786768971       15.0010143099
  O         8.4891834047        5.7391717654       -0.6034307067
  O         2.6484327375        1.7552063930        4.5750893581
  O         1.4643703420        9.8020216975        2.4733677892
 Na        10.5971524368       11.5658687285       14.4390603956
 Na        18.5496432516       13.9302301689        0.9164514140
 Na        14.2608136885        3.1517420465        1.2682435385
 Na        17.5650112424       10.6380560920       -0.8668496949
 Na        18.2685571592        6.7350798190        4.9739503176
 Na        11.6163557128        0.3797602011        0.6847740267
 Na         6.2075051409        4.4007566374        0.0288253200
 Na        12.0557401493       14.6882286056       13.0509787941
 Na        -0.2024360145        6.0574527264        8.8755201700
 Na         0.4004615200       13.8155764427        7.0526084154
 Na        13.1251791106       10.2461494028        8.0746956890
 Na         5.3875956243        5.7756356927       15.3312427900
 Na        10.7029001686        3.1644099006        2.1046958995
 Na        13.6694496044        0.5141592497       10.7798145352
 Na        16.1199747411        1.8805682819       13.2666510439
 Na         0.6026059937        9.9590734614        6.7630824907
 Na         9.8907751633        3.6824706322       -1.1996077445
 Na         3.3987601698       14.0721426613       13.4627943344
 Na         8.5526265570        6.6038561720        7.2750760265
 Na        17.6364005448       15.1568258006        9.0521907940
 Na        -2.8594299088        9.8057314832       11.7620977025
 Na         9.2100270429        5.1197459348       13.5439021650
 Na         3.2209975803       15.6840436830        7.5316868638
 Na        15.7549944807        6.1260769583       12.4540432233
 Na         5.3647127942       17.7430681500        0.9361037787
 Na         3.0016589457       10.1983428111        4.5395261770
 Na         2.5999538701        3.9012400650        9.7513753353
 Na         1.0853767617        2.9596191402       -0.4329458880
 Na        18.0345430017        7.6623272010        1.0067054002
 Na         1.6246623808       12.9265472622        9.8942324343
 Na         6.7800209040       10.1256071809        1.5294090394
 Na        13.8084713239       15.2434101154       17.1189901422
 Na        13.2453388816       15.7637843523        9.3382310156
 Na         7.6193835394       17.1826757882       16.8295542101
 Na         6.6758764125       -1.5796351349        3.7875180180
 Na        12.3406910897        2.0521944979       -1.7012010203
 Na         5.8510856259        1.3960047026       -1.7157998945
 Na         2.8889031358        6.7464357166        5.5917691816
 Na        14.8586369405       13.2672032249       10.8611647790
 Na         5.9670006926       14.6166758583        2.9667406593
 Na        14.3784832803       18.4444884154        3.1760096960
 Na         3.6390451517        7.0953121375        1.0665100314
 Na        -0.8811017013       13.6414167781        4.1667318174
 Na         2.5856682863        1.5413439998       15.0491009269
 Na         3.6523026364        0.6256086059        8.5999894500
 Na        13.6604720765       12.5176380901       15.0478339485
 Na        15.1466837464       15.6667885073        6.5494958806
 Na        16.6192941418        2.0618626001        8.0245184801
 Na         8.8773526237       -1.6014937159        0.5618944264
 Na         5.5883615734        2.1545185783        5.2411560612
 Na         7.6376102096        1.5458832089        1.3573306223
 Na         3.7350021434        3.8622374702       17.3183580668
 Na        17.8184684975        3.5474557331       10.6619142698
 Na        12.6106115248       13.6757795799        2.7134998512
 Na        11.0435491293       17.0265373916       -2.2173085600
 Na         7.0618786424        9.3206415057       15.3923763356
 Na         1.4974911310        0.2512187576       11.4427302102
 Na        17.1281193272       11.2737925675        3.0659950706
 Na        17.2209634613       14.8713751014       15.2234527780
 Na         1.6170907676        5.3413543841       15.5764478937
 Si        -0.7167262469       12.9915039202       12.3263606821
 Si         3.2682060066       18.4220620336       -1.0052585673
 Si         5.3793917680       13.2236683045        0.0143502483
 Si        14.8231306103        6.7023926540       -1.2329569358
 Si         0.7311263441        8.4784708718        3.4317664128
 Si        11.5738160638       16.8122230139        3.3436027057
 Si         5.4929222585       18.4355759519       10.9172673977
 Si         1.3838696402       11.5689311708       -0.8165490392
 Si         0.7804976523       16.6899185414        4.7557761383
 Si         3.4263061517       13.6232876493       17.1426002373
 Si        15.0525709926       16.2613097004       12.0458169032
 Si        17.9427135401       12.0104113388        9.5205000637
 Si        18.0128340221        0.9523003551        0.7231126907
 Si         8.7121665922       11.5030392879       16.4473585304
 Si         6.5870490162       -0.4485745849        7.8992102720
 Si        15.5936455539       16.1146279644        0.3430637153
 Si         0.3265938863        1.5761229591        8.7205633089
 Si         0.2062131084        0.1118388191       -1.7977176677
 Si        17.8732398715        7.1640145401       15.2846982560
 Si         9.3125514812       -0.2582327387        3.3676034680
 Si        15.3194767971       13.5696271541        4.0477762678
 Si         5.5405551335        7.5968646641       -1.5547107956
 Si         4.2142009368        1.7172907590        0.7962181653
 Si        10.6038845256        2.2539616418       12.9763233101
 Si         4.9841435279        2.0978115952       11.4328264663
 Si         3.0100529453       16.4531262046       11.4835151955
 Si        16.7354706190       16.1888133981        3.2425397867
 Si         1.1822769865        5.7643219616       -0.2742666243
 Si        10.8958660124       13.8854862999       -0.3594268962
 Si         1.8468843904       16.1377822632        0.3730860130
 Si        13.2022221853       12.1457969235       -0.8930248680
 Si         1.0810431555        8.6808850262       -0.9809846057
 Si        17.7615464880        5.6417747113       -1.4628276075
 Si         8.1226978539       14.7993852407        0.4714380138
 Si         0.9261811735       15.4248277964       16.7758395683
 Si        17.5014462746       17.1110875722       17.2018411395
 Si         3.1401406230        0.5570874450        3.5720552505
 Si         7.0197948547       18.3550448971       13.7909539814
 Si        17.4270564528        0.3312684142       10.5710002705
 Si        13.7014252768       -0.7257206275       16.3527154165
 Si         3.0405923678       13.8099363992        2.1260704214
 Si        12.6358365875        4.9175162699       -0.6485778849
 Si         7.4868884588        1.9705460581       13.4779763724
 Si         3.7835731013       16.1745632037        3.8586846815
 Si         9.0117106757        0.9932776455       17.6945899541
 Si         8.2450833981        6.2122099144       -2.1401550058
 Si        12.2049343155       17.3871629207        6.2933219843
 Si        15.8397653834       18.0242761992       14.6574013348
 Si        16.8621989879       -0.8160108001        5.3406602654
 Si         1.4839092537        2.9033692194        4.5043057040
 Si         9.6949111473       16.7464230671       14.4488470712
 Si         4.5397877183       -0.5633334431       15.5856220753
 Si         7.3912107667        3.5261091204       16.2910103003
 Si        14.1939911069        4.5379333158       16.1884606715
 Si         8.9401487728       -1.5829172541        6.3322148219
 Si        18.1000767198       15.9381787782       12.1156159700
 Si        15.0794722655        0.8726553210       -0.4549333761
 Si        -0.1157278542       12.4631438627       16.0223290692
 Si         0.4836205902       18.3040239635        2.4063176127
 Si        15.4984716388        9.1302001284       14.8130755446
 Si        11.4881689964        4.2980541341       15.1322115025
 Si        17.9590257199        2.1029273279        4.6542621271
 Si        18.2495350507        4.4780728948       13.7642620165
 Si        15.4833992716       17.6696027527        9.4834017052
 Si         1.2514225703        5.5053650785       12.0694654691
 Si         1.4275049192       11.2364718880       13.5842738455
 Si        -0.1048620137        3.7305050998        6.7512273647
 Si        18.6452547116        1.8866367594       15.2748155072
 Si         1.1800356802        8.1816529522       13.7011526033
 Si         4.2264217179       11.3063314661       15.3107743226
 Si        16.4890246554        2.9195021688       16.9655358766
 Si         0.0057585621       -1.1533644697        7.2127870501
 Si        17.3684292673        3.8138440665        2.2875655730
 Si        14.3527490784        0.0197391571        7.0610131892
 Si         1.9077805588       17.5159912841       14.2995620668
 Si         4.3160700957       -1.3489819788        6.0713263762
 Si        10.0504045997       14.1956735387       16.1041015761
 Si         6.0104644845       10.8242425567       -1.4499074215
 Si        -0.8773380029       18.7077883005       13.3316909381
 Si         0.8723457480        5.2678840221        2.6468578349
 Si        12.4904395394       16.4450090664        0.5048775809
 Si         3.0359675308        8.4504265948       16.1125045563
 Si        16.6892342253       12.0689234297       14.5111363885
 Si        15.5240838595       13.0334646111        0.8567702534
 Si        10.9797380078        0.1432778863       15.3353811648
 Si         3.7857224732        3.9843863953       13.3403732561
 Si        11.1014136394        6.8474085638       16.7255633964
 Si        13.3848757763        9.1360651775       17.1760629942
 Si         1.0617998014       11.3852366084        2.2173081680
 Si         0.6963913126       16.3688765516        9.6540797544
 Se         8.3513123952        4.9710782367        9.7410005470
 Se         4.9718738831        8.1221996012        3.4977199170
 Se         5.5027375255        4.7896547845        6.3380528473
 Se        10.8301828082        7.2477383810       12.1075930305
 Se         8.0307741558        4.3035279378        2.6601617462
 Se        10.9144899110        1.2663416883        8.0808736060
 Se         3.9665726486       11.2858898541       10.5632078815
 Se         9.0276178983        7.9392614661        4.6877842800
 Se         2.1676347810        7.7140713590        8.5970476527
 Se         8.2164607202       11.3539257066       11.2889003923
 Se        12.1092789572        5.9861046811        2.8075138384
 Se        11.5559990629        5.5907744328        7.5623119633
 Se        14.1946680971        8.1183934317        9.7842408295
 Se         6.3969837430        7.8040980764       13.0047620427
 Se        13.0758213258        1.7428391740        3.6343409833
 Se        15.0488825687        4.0196189939        9.8415241184
 Se         6.6016774792       11.9548401941        3.9584815960
 Se         2.6500092000       12.0705076736        6.7500603472
 Se         6.3092883624       13.5616440347        8.2529946507
 Se         9.7299756466        9.0881728172        1.6018383037
 Se         6.1889829035        9.1034952260        7.6562265857
 Se         9.9717477646        9.6762241669        8.6116275941
 Se         6.5026040217       14.7951965099       12.6523909423
 Se        15.1310127889        8.8548313788        2.1425876399
 Se        12.6587002547        9.3446270841        5.1540732147
 Se        17.8376482646        7.7033626700       10.7903132346
 Se        12.5740628193       11.5107310798       12.1762856231
 Se        15.3782175730        5.5051213816        5.6138859196
 Se         8.0150260597       15.8624630745        5.9232917024
 Se        10.6200354310       14.4975259318        9.5483178670
 Se        10.0027318521       12.7193031650        5.5997011432
 Se        13.8554225015       12.9699849011        8.1252753189
 Se        16.9870158684        9.5924466906        6.3942841804
 Cd         6.9685254627        9.5853517157        5.1660905948
 Cd         6.4695123432        6.0606260162        4.0904984341
 Cd         6.3627066672        3.2949333486        8.4076844078
 Cd         6.3077664867        5.3422191994       11.5477918642
 Cd        11.1269758665        1.6467942259        5.3664278149
 Cd         9.8351249421        2.8976408743       10.0428643504
 Cd         0.5124544842        9.2137412632       10.0292302826
 Cd        10.2722670932       10.0748510877        6.0394590743
 Cd         3.5226918305        9.8149880111        8.1316603537
 Cd         4.9637579080        9.8182984520       12.2674579396
 Cd         8.8583044714        6.5340984499        1.4924960466
 Cd        14.5633225993        3.2105667990        5.1082335084
 Cd        11.4061135058        7.4228436333        9.4126148925
 Cd         7.1139452343       12.4333917174       13.5690802123
 Cd        14.8532516062        6.2551101137        2.7292309536
 Cd        13.0215284779        2.8786346727        8.6420250402
 Cd         5.0634253569       12.6249417461        5.8667935974
 Cd         5.0141806934       13.9404852680       10.5351681627
 Cd         8.8785926081       15.1754587889       11.5483979046
 Cd        10.4373805671        9.9353555023       -0.6752216942
 Cd        11.6726464532        6.8005331657        5.2791645312
 Cd         8.7524110387        8.8239001862       11.7767844263
 Cd        10.7169587042       11.7964913658       10.1685918010
 Cd        12.3949568415        8.6431851984        2.4269996321
 Cd        15.1964952522        8.8844985891        4.8094427017
 Cd        12.9961876568        8.9971730436       12.4276296853
 Cd        16.6225073847        9.0194974499        8.8987796370
 Cd        14.4217884847        5.9463679816        7.9934259813
 Cd         9.1154108873       14.5556362398        3.8424131086
 Cd         8.9064319666       14.0083462664        7.6352534432
 Cd        12.2839711835       13.9773609040        6.2635842225
 Cd         6.5778028556       11.0412497756        9.1477653398
 Cd        15.9454474689       12.0304722384        6.8622716174
