426
 i =     9500, time =    19000.000, E =     -8405.8372187968
  O         7.9118072884       -0.1860709199       18.1357070677
  O        14.0152151145        0.9850952199        0.4972245779
  O         4.5526078390       13.6170215250        1.3965364971
  O         2.5390194659       16.4032467932       13.1557273338
  O        10.8295214020        3.7325710739       16.5112614611
  O        17.7609966615       15.2592052828        2.6809288826
  O        17.4728110328       11.8947724124       13.0307550897
  O        11.0959824175        1.2886242851       14.0167924128
  O        10.5622303424       13.4741095188       14.9250442234
  O        -0.4411925618        0.0496308441        1.9362433703
  O         2.4227303910        4.7779671777       12.1696755401
  O         8.4289238306       13.3452517776       16.6640130638
  O         4.2016084632       16.4659132521        5.6600704086
  O        13.5406283638       17.0349221282       16.3819100081
  O        18.1724837840        1.4331162371        9.7006315175
  O        16.7153390895       17.6144970524        4.0496849368
  O         5.6512286366       17.9430700279       15.0130605685
  O         4.2212563400        0.8520376727        2.5302307575
  O         1.7968819647        9.9444319237       -0.4861065428
  O         8.0229239324       15.2154262811        2.2285911779
  O         0.0514415935       17.7757221371        3.9260187813
  O         1.3409984034        6.7291856385        3.0447910616
  O         8.0039702235        2.4327207417       17.2889600939
  O        10.0078681947        1.1850297723        3.4480965802
  O        12.5649967273       15.9579568040        7.1302425903
  O         0.2250948824       15.2562127864        5.0788764793
  O         4.5885360539        0.4409217434       11.1897560549
  O        18.4191913937       18.2182006196       17.4153704788
  O        17.2535414337        4.1135149631       -1.7303899971
  O         6.2848476426        2.2077705593       12.3987660061
  O         3.0024112505        9.9946041201       15.8157144164
  O         6.8541997277       13.7268171349        0.3718834044
  O         1.5549160829        4.9742079343        1.1229168019
  O         4.1661794333        7.8202674999       16.7529880402
  O        15.3721895979       16.3163810427        8.8293344735
  O         1.1264344637       16.2959601714       15.4553918592
  O         4.2900161641        0.7734704430       16.1364669230
  O        15.4855969800       18.2969443599        6.2503228213
  O        14.8553929072        5.8447580288       16.6815569655
  O         1.6899899290        4.1116549462        3.6220075276
  O        14.3157843713        8.1007300653       -1.2941667792
  O        -0.7320091966       14.3498097307       12.7775192950
  O         1.5697085939        4.7883211607       -1.3901160715
  O        -0.0327541271       11.6530539226        3.3873334958
  O         4.0871516615       -0.2771368021        0.1259946205
  O         0.2057688356        4.8985486206       10.7993502027
  O         9.8905238172        0.7654644675       16.4418982181
  O         4.2717790049       17.1520925384       11.0958673288
  O        16.2527895378       12.7239470999        4.7015132373
  O        12.6671949986       16.9942718627        2.0986847003
  O        16.9997621798       -1.0002261797        9.6314728652
  O        16.1461277633        4.3789299010        1.6710125588
  O         3.0562936655       16.7071640524       -0.1556809456
  O        -0.6754334274        5.7321215306       -0.2153802455
  O         3.7122364906       12.7539010919       15.8573109956
  O        13.7958048758       15.3346477311       11.9695637377
  O        18.1040347620        2.5450068056        1.2185533015
  O         6.4377610853        1.0558966340        8.0231686838
  O         2.1684490794       14.7800419810        1.4795033655
  O        18.7047290001        4.7344924674        2.7344739507
  O        11.9176360383        8.1084990796       17.0207355329
  O         7.8723725238       -0.3527813610        2.6390656965
  O         6.1381067722       18.3388143843        9.6191954792
  O        10.0610133278       11.0086067451       16.8126424359
  O         3.4180851653       -0.9669654651        7.5801146226
  O         0.0164403683       11.6692493843       -1.7637510853
  O        12.0382869411       17.2769288704        4.7256693916
  O         2.8751904435        3.7305816146       14.7887750700
  O         3.0620192257        2.0600235606        0.2336468913
  O        13.5694292153       13.3948699009        4.7132952238
  O        17.8502716372        3.0352390728        6.0566398993
  O        11.9012328822       14.8137505616        0.3538013418
  O        18.6894575752       -0.3640519470       11.7025240102
  O         5.4996847423       11.5403340173       -0.0290026318
  O         8.8962539278       -0.6303540187        5.1442569027
  O        16.2433277758        0.9257636264       11.4305973363
  O        14.6606288767       -0.1876273055       -1.6933196914
  O         5.8381505296       -1.0563150633        6.6868025601
  O         9.8751918550        1.5724926040       -0.3688638071
  O         4.1223881837       -0.2315640816        4.8973292859
  O        17.4256458729        5.8073786515       14.5131328760
  O        10.4506306220       17.5514874519        7.0415292818
  O         4.6852690801       13.7202261737       -1.2444029053
  O         2.3230422059       16.5948454749        3.9898118881
  O        13.2497220043        3.8835550489       -1.7512000959
  O         4.9979214680        6.5741387175       -0.3405055114
  O         5.7275398034        1.8290993801        0.4849992514
  O         1.3122912023        9.5146140449       13.2179156179
  O         8.1676344274       -0.9217303962        7.8557983617
  O         3.3049183148       14.6708726707       11.2619786194
  O         0.9681486483       17.2193313327        1.3204102696
  O         1.4506469503        8.1919204041       16.9885187142
  O         9.4707287525       13.9530694130        0.3794075858
  O        16.8799525128       11.0273216466        9.8602328523
  O        17.2125551888        1.7300761757       16.2690660764
  O         9.3246962725       15.8208682248       15.6588356002
  O        14.6319811097        1.3236981055        6.9431385157
  O        10.5066811199       18.1656581413       14.9267611678
  O         7.9817681757       17.5289079212       14.2615145832
  O         6.7701917268        7.3326699917       -2.2837765691
  O         3.7100304055       14.4174954396        3.7011080287
  O        10.0231665481       16.1907876117       13.1476571323
  O         1.7119899005       -0.5563930202       -1.4517216027
  O         3.6069682139        2.4145843011       12.5361366164
  O        15.3379135854        3.4288918075       15.8502475189
  O         3.0106012339       18.3082707994       14.8556416708
  O        17.1421547406        0.6331813914        5.0527744259
  O        16.8982069704       -0.5755372349       13.9133849319
  O         8.1331560089       11.0165506606       15.1205441268
  O        13.8230886973        5.7570609339       -0.1783253062
  O         4.6810319108        2.8973596547       10.1803654374
  O         0.2885962707       17.7120086478        8.7684301234
  O        12.9472992624       18.6208868193        6.6693444689
  O        11.3773578929        5.8402623503       -1.2109195183
  O        14.4246937593       -0.5341889599        8.8451892232
  O        16.4901181480       16.9896047062       15.9170370828
  O         7.7355871363       16.1745264412       -0.2001370890
  O         0.5323083166       13.7524664635       15.9995949708
  O         5.0418277873       10.9209901445       16.7409277710
  O         1.7593585330       16.9417887076       10.6802248398
  O         4.9409837651       16.6079803955        2.9316282858
  O         1.1406372835        3.2124920759        5.9895403467
  O         1.6143616040        1.6247671677        9.5999715620
  O         7.9991148083        5.0831636149       16.2585998329
  O        14.8879554559        8.1590556831       13.4952709938
  O         1.3283558299        8.7427698797        4.8075363060
  O         5.7573336980        3.7848313454       17.1769683160
  O        10.7516030152       14.4721285327       17.3862455229
  O        15.6286718163       15.2834841278        4.2704265063
  O        17.5805056751       12.4097356001       15.7175838581
  O         0.2225189222       11.0685304564        9.0996734384
  O        11.0093399540        6.0482938686       15.5108189375
  O         0.7275659851       18.3922337183       13.7827621488
  O        18.3810673955       12.8806838182       10.6789483951
  O         1.4263983424        7.2799836041        0.0040830358
  O        18.3461179362        6.6323300718       16.8154267941
  O        -0.2068878556        3.1748903788        8.2755563628
  O         2.4208035997        7.7075279127       14.6654500715
  O        -0.6319231009        0.9744281612       13.9971341225
  O         0.6976320815       11.9881036241       12.4565403671
  O        13.9517836934       12.2084890199        0.4799310105
  O        10.3722565505       17.9276606967        2.7916316175
  O         1.1569402981        7.1021947799       12.4318280151
  O        -0.2543301332        0.9128831702       -0.5083519664
  O        18.4523220169       15.6002833366       16.8434057972
  O         0.1571560616        0.4900507200        7.5351899128
  O         7.2240953208        0.5282256514       14.3181781171
  O         8.7902034024        2.3536433607       13.2206188994
  O        18.3534295465       16.8519347963       13.2240273057
  O        16.3543389129        6.4693853172       -0.6960648241
  O        14.7753458184       -0.3951853485       15.1869949686
  O        13.6782794321       12.7267609232       17.2423439314
  O        15.6280902956        2.2953891558       -1.0980691963
  O        -0.4131563619        7.8838546497       14.3956204485
  O        17.1244702916        3.8337635025       12.9395852529
  O         1.0924618674       17.4899767614        6.3235460556
  O         2.4635757472       12.2975902727        2.6245513449
  O        12.8676417696       10.3413949764       -1.2685966697
  O        16.5385408606       15.4450009822       11.8370880389
  O         4.0791670381       17.7235999169       17.1804992972
  O        13.9955736153       16.5319912200       -0.1582814999
  O        11.4424485517       12.3409240538       -0.3607466546
  O         6.9456767404        3.1613067290       14.8716320421
  O         6.3119826962       18.4174052396       12.3131661638
  O        16.5872121150       12.1310825651        0.9903369786
  O         2.5047831669       14.7516503355       16.7907292326
  O        15.8807989517       16.7198322140        1.7552305024
  O         1.9748205673       -0.3005133884        2.9834596355
  O         0.2910534306        4.9517259023       13.5691582146
  O        14.9191599071       17.6240577390       11.2170779858
  O        16.6413769175        8.1552678650       15.5364311535
  O         7.5654120769       11.0443259990       17.7254923127
  O        16.1365248874       10.4321280432       14.5072918537
  O        16.5571415527       16.5568504244       -0.8681139097
  O         0.6010072047       11.8077982592        0.8340681900
  O        18.6111718082       16.0334816711       10.5829052252
  O        18.9365804834        5.3370912668        6.6513812597
  O        16.6439480204        0.3686950279        0.3961693077
  O        18.0147977935       -1.4992210421        6.5335334598
  O        17.8967370506       12.8446047740        8.0262674268
  O         0.8025240426       15.4321755211       -0.7508905216
  O         2.2938682974       12.5722581203       -1.1860179054
  O         5.2160840795       10.8567621080       14.3119865983
  O        11.0153092118       15.1958840492        3.2526363773
  O         5.6696057816        9.1510576795       -0.8152305531
  O         2.7863813051       11.6269738862       13.9555330702
  O        17.0572459114        2.8087018353        3.6195695369
  O        12.4176624474        0.2906763870       16.1245486004
  O        -0.7142795498        8.3749115659        2.9251818090
  O        15.4349441808       13.1292395509       14.2214470807
  O        14.8561103289       13.3234813823        2.5695905509
  O        12.9824910562        4.3928888831       15.1263823189
  O        10.8881011359        2.2592547116       11.6071531647
  O        18.7055271894        3.3721806419       15.1590851052
  O         9.3540472926        7.2956165897       17.0808003587
  O        10.7180288510        4.0195984520       13.8074053548
  O        15.2887752493       16.6885162110       13.7383722474
  O        11.4565715859       17.4921872884       -0.2210665985
  O        -0.7355694665        8.8471761829       -0.8461617610
  O         0.0647807642        1.8891929861        4.0923050396
  O         4.8138858960        4.7806718104       13.2278383190
  O        14.0711738649        9.3915830009       15.7963255196
  O        15.4921793655       14.5052769838        0.2052416260
  O         0.3680502847        1.1002186601       16.4105869938
  O         1.0837327503       15.0929440535        8.7628950010
  O        11.8768609019        3.8822234633        0.5113137302
  O         0.3246332317       11.2032891995       14.9416933332
  O         8.0666312436        5.6709406298       -0.5244874657
  O         2.6554077018        1.7595983256        4.4354017085
  O         1.7270156081        9.7135205369        2.3851397023
 Na        10.2380124130       11.0774538021       14.3385521925
 Na        18.4859843836       13.9222561199        0.8278276038
 Na        14.2163986770        2.9620275339        1.3038906256
 Na        17.3611477003       10.7002371955       -0.6315707331
 Na        18.5687462908        7.1747564622        5.3214915351
 Na        11.9871811915       -0.0276255681        1.0884855877
 Na         5.8578659113        4.4338360271        0.0720803361
 Na        11.9060511211       15.0825148586       13.5708064635
 Na        -0.2636189042        5.7939267549        8.8890424511
 Na         0.1385776026       14.1223708962        6.9358314522
 Na        13.1257039374       10.2227019499        8.0622966598
 Na         4.7794195680        5.3126938404       15.6934440043
 Na        10.8323458353        3.2896848707        2.2961617103
 Na        14.0943477438        0.6005088325       11.0287941027
 Na        15.9686728768        1.9582366175       13.4878102453
 Na         0.4080433032        9.8201979875        6.6820275431
 Na         9.7059163554        3.8127068901       -0.8825792034
 Na         2.8302360920       13.9935628792       13.7989619091
 Na         7.6338319979        6.6492584586        7.5949946140
 Na        17.0081643976       14.4739136776        9.6087610276
 Na        -2.7390533108        9.9959578232       11.9200543471
 Na         9.0094556144        5.7908310026       14.1437752714
 Na         2.9233788021       16.0157422116        7.8724679095
 Na        15.7561105925        6.1261073933       12.4359159521
 Na         5.8151980740       17.4262314643        1.0594109935
 Na         3.0240110920       10.8305325267        4.3770493737
 Na         2.5004864208        3.9641325886       10.0201250253
 Na         1.0491698600        2.8293766668       -0.0596144502
 Na        17.8386399692        7.4350336423        1.0858467877
 Na         1.8655783997       12.8729143241        9.6385446730
 Na         6.0802914567       10.4462859687        2.0698361369
 Na        14.3496123430       14.9978349010       17.0615644596
 Na        13.1760422606       15.5993355708        9.4886697576
 Na         7.2766692821       17.2568819199       16.9430089602
 Na         6.5361552208       -1.4538215532        4.1237251114
 Na        11.8957593401        1.8940358821       -1.6205650912
 Na         5.9834597683        1.3276743083       -1.7533841490
 Na         2.8455427004        7.1744749267        5.4233847945
 Na        14.4021460487       12.9041102813       11.5769839292
 Na         6.1293937484       14.3924858415        3.0226353961
 Na        14.6898143233       18.6251637004        2.6488512102
 Na         3.4720007655        7.0043509285        1.1400673175
 Na        -0.9295641997       13.6581674742        4.0918397770
 Na         2.6983550003        1.2144630005       14.5221379326
 Na         3.5712585349        1.2490484804        8.4529962389
 Na        13.6002096304       12.4965750473       15.1278588292
 Na        14.9600184558       15.7898565957        6.6574560642
 Na        16.5815686848        2.2670487339        8.0171445461
 Na         9.1149480673       -1.4810316772        0.5433661104
 Na         5.4254405914        2.0175671220        4.9609069192
 Na         8.0058484042        1.3597245019        1.0709012074
 Na         3.3089534956        3.0298330219       17.5389229835
 Na        17.9893549460        3.3464228993       10.9394638985
 Na        12.4141482899       13.2329901830        2.7732089000
 Na        11.2092372159       16.8387542525       -2.3501896634
 Na         6.7954533459        9.2830158130       15.4832645449
 Na         1.6124190396       -0.3170117571       10.9813799452
 Na        17.0869195770       10.7640730053        3.0091343121
 Na        17.3938008706       14.8042654021       14.8569006355
 Na         1.3455732293        5.1327375345       15.6692191813
 Si        -0.7196683962       12.7967850097       12.2880131631
 Si         3.2136455481       18.1833212475       -0.8582052287
 Si         5.4282240546       13.1638144798        0.0549343571
 Si        14.8063430704        6.5582549107       -1.2190081935
 Si         0.8608212849        8.4814176532        3.2691896595
 Si        11.4282121041       16.7566196578        3.2860112350
 Si         5.3174600051       18.3786933176       11.0301507772
 Si         1.2462303286       11.5107630793       -0.6507916206
 Si         0.8857701870       16.6562888929        4.7953511542
 Si         3.3614475576       13.4435080743       17.2939603755
 Si        15.0493538241       16.2184961294       12.1845331964
 Si        18.2242382618       11.7855818020        9.3139831596
 Si        18.1062681753        0.9076122673        0.7931064196
 Si         8.6003763226       11.6133348743       16.6112235164
 Si         6.5981640911       -0.4894028276        8.0715215992
 Si        15.4711953651       16.0951740338        0.2905585635
 Si         0.2239735714        1.6350904220        8.7654111430
 Si         0.1908559028        0.0205399073       -1.7261764109
 Si        17.7898479706        7.1661731194       15.2353757527
 Si         9.2635442021       -0.2931401890        3.5264911160
 Si        15.0688507052       13.6339742184        4.1839578106
 Si         5.3446145428        7.6568180688       -1.4308411426
 Si         4.2936166936        1.1996725656        0.8584241635
 Si        10.4329724037        2.4927073247       13.1448396644
 Si         4.9131237389        1.9952566080       11.4828042352
 Si         2.9597584795       16.1971072166       11.5064315723
 Si        16.5709770608       16.1361677624        3.1884669746
 Si         1.0516556679        5.7149847332       -0.2946536652
 Si        10.8550771114       13.8920230375       -0.4526258901
 Si         1.7620329526       16.0142916708        0.5341929564
 Si        13.0870029780       11.9826891484       -0.8975928006
 Si         0.8440279144        8.5920297346       -0.9059656764
 Si        17.6920749918        5.6747444144       -1.3987553143
 Si         8.0544991031       14.8514830271        0.5986287083
 Si         0.9175705603       15.2387961941       16.7873016948
 Si        17.5618868559       16.8599620119       17.2032968632
 Si         3.2142742309        0.4430665634        3.6921220638
 Si         6.7579180787       18.4595622554       13.8915712421
 Si        17.4302044502        0.2508211192       10.7103293319
 Si        13.7265726506       -0.8028956249       16.3991579848
 Si         3.2340741873       13.7531556813        2.3049233251
 Si        12.4877870464        4.7897131219       -0.6189434156
 Si         7.2511892325        2.0390113794       13.7027159749
 Si         3.8668353073       16.1384243969        4.0059592948
 Si         8.9830728788        1.0158282179       17.7887687646
 Si         8.0252637607        6.3545865432       -1.9876320435
 Si        11.9290712347       17.2555882943        6.4064590395
 Si        15.8510162169       17.8874837203       14.7139582912
 Si        16.9186093968       -0.9454597714        5.4203069114
 Si         1.3917091227        2.7344080766        4.4881249601
 Si         9.4492331463       16.9318567411       14.4478637168
 Si         4.2781308330       -0.7737910236       15.7933411029
 Si         7.1404396133        3.6304021881       16.4973874834
 Si        14.1205295625        4.4333662589       16.3274569050
 Si         8.9452473893       -1.5575897795        6.4958269867
 Si        18.1005802484       15.7680598641       12.1152115464
 Si        15.2469611915        0.7678880399       -0.4524475058
 Si        -0.1782591513       12.2811117444       16.0629663803
 Si         0.5747115202       18.3281680335        2.4883783342
 Si        15.3854162675        8.9717104104       14.7998049521
 Si        11.3413996917        4.4440924893       15.2686110838
 Si        17.8805247174        1.9463285421        4.6841388112
 Si        18.1822575215        4.3986733697       13.9192361045
 Si        15.4396180511       17.6908037923        9.5983068893
 Si         0.9682570546        5.4498931579       12.0815391524
 Si         1.2986195599       11.0313588753       13.6227259140
 Si        -0.1816982840        3.8037247307        6.7564545776
 Si        18.5505048207        1.7058927925       15.3865324585
 Si         1.0753868586        8.0139197628       13.7495863332
 Si         3.9762176024       11.1864937089       15.2689574755
 Si        16.3956219269        2.9382819039       17.0551638828
 Si         0.0209381437       -1.0976719094        7.2634441718
 Si        17.5004363823        3.6799678475        2.2421411630
 Si        14.4019735999       -0.2356319777        7.1570631700
 Si         1.8148762383       17.3054092291       14.3749841403
 Si         4.1904391808       -1.2962649802        6.2464034244
 Si         9.7746240374       14.2169800533       15.9949640696
 Si         5.9456950746       10.6492860036       -1.3482381174
 Si        -0.8589371791       18.6193482691       13.3263665232
 Si         0.9502541876        5.1691424087        2.6843699125
 Si        12.4165444830       16.4095794123        0.5484189958
 Si         2.7686227754        8.4861461968       16.1749283628
 Si        16.5476723010       12.0603107122       14.4107947163
 Si        15.2911790750       13.0006243789        1.0211306811
 Si        10.9347681691        0.3215449800       15.3649087814
 Si         3.4572310086        3.9060268372       13.2920691016
 Si        10.9743803151        6.7806014449       16.9183395010
 Si        13.2819389327        8.9970548849       17.1938261882
 Si         1.0740222333       11.2957849818        2.3333097236
 Si         0.5627369546       16.3187349259        9.6593930222
 Se         8.0255880399        4.8569517072        9.8316215146
 Se         4.8955161014        8.0745314515        3.6359502943
 Se         5.3830945070        4.4200678290        6.2354460427
 Se        10.8065613596        7.4882166832       12.2198382804
 Se         8.0176447635        4.4377842244        2.7907024600
 Se        10.9200839976        1.5412665172        7.9250688944
 Se         3.8406735685       11.1783291138       10.7870564743
 Se         8.7425083521        8.0809398656        5.1882036340
 Se         2.1809873319        7.9408750303        8.6426426603
 Se         8.1398784370       11.4980718029       11.6413527284
 Se        11.9355338091        5.6177348483        3.3379651628
 Se        11.1911765525        5.5874485691        7.8911842500
 Se        13.7076395958        8.1468916707        9.9549751856
 Se         6.5952700400        7.7871765489       12.9370160720
 Se        13.3825911113        1.6138927670        3.8956164846
 Se        15.0596325048        3.9787707806        9.5640729396
 Se         6.8798306996       11.9186418754        4.5555114189
 Se         2.8316689019       12.3194009380        6.9613356239
 Se         6.4320344652       13.3559960722        8.5412053467
 Se         9.6908522001        8.8483519854        1.4831242907
 Se         5.9761331733        8.8954447223        8.0504075920
 Se         9.7840670282       10.0081843265        8.8014488702
 Se         6.4381943365       14.7560927134       13.0185536627
 Se        14.5780206595        8.4950719524        2.3230253795
 Se        12.5696918127        9.2498896204        5.4127702855
 Se        17.6357752560        7.4938787042       10.7414736349
 Se        12.4398690889       11.2758249208       12.6576050805
 Se        15.4236784718        5.7878730054        5.9561194203
 Se         7.9071474452       15.8869114031        5.9378087564
 Se        10.4485089421       14.5217989647        9.9509142272
 Se        10.0596888307       12.8920015740        5.8695493740
 Se        14.2415050977       12.8538422015        8.4543379345
 Se        16.8734189028        9.4695204203        6.4761161994
 Cd         6.4426411769        9.4849199624        5.4890182755
 Cd         6.3770234698        5.9561546132        4.5069051124
 Cd         6.2531236982        3.1476913223        8.4627095652
 Cd         6.2768692824        5.3272782322       11.7810408395
 Cd        11.3024966855        1.7463265593        5.3561609696
 Cd         9.9324148170        3.1378880585        9.8078392235
 Cd         0.2288819118        8.8959569694       10.0147212570
 Cd        10.0217741270       10.2590975310        6.1579160152
 Cd         3.6039285067       10.1932718690        8.1908126757
 Cd         4.9467769915        9.6438139014       12.3702839402
 Cd         8.5685781944        6.4846063117        1.3870496930
 Cd        14.4757372875        3.5488855332        4.9513783107
 Cd        10.7487995519        7.6088388467        9.3976820352
 Cd         6.8728941825       12.4158718791       13.9265242616
 Cd        14.6290831254        5.9687312990        2.5945843079
 Cd        13.3685451243        2.3081955519        8.5472074293
 Cd         5.2498507515       12.8414783191        6.2370086886
 Cd         5.1593653128       13.4357258603       10.9090433939
 Cd         8.7176576952       14.8761552385       11.8631934052
 Cd        10.3137842981        9.9668840546       -0.6555543735
 Cd        11.1777807896        6.9167412960        5.5791904941
 Cd         8.6572344178        9.0296349496       12.0518110592
 Cd        10.8244480947       11.9631607051       10.6937205784
 Cd        11.9941889421        8.2494230729        2.8428630297
 Cd        14.8627519161        8.2121058140        5.0419886305
 Cd        13.0395931112        8.6946151238       12.5033567023
 Cd        16.2127730895        8.7665065406        8.9625401516
 Cd        13.7710912079        5.8944613951        8.3234800464
 Cd         9.0623977098       14.5149502880        3.9438109018
 Cd         8.8390955464       14.3054159881        7.9354043521
 Cd        12.5147788294       13.6564639880        6.5686252261
 Cd         7.2477228975       10.9762410585        9.0843004406
 Cd        16.1582146337       12.0138575602        6.9069579638
