426
 i =     7900, time =    15800.000, E =     -8405.8558337283
  O         8.1570512193       -0.1291069312       17.8373973687
  O        14.0098966586        0.8408099467        0.5545920946
  O         4.5448398472       13.7070440164        1.1302200135
  O         2.4735389572       16.3050847442       12.9378523686
  O        11.1828695393        3.4328768460       16.4842111457
  O        17.8311626887       15.1577301431        2.7865610786
  O        17.5015545568       11.7671944669       13.0366936731
  O        11.1848993867        1.1422686896       13.9082373010
  O        11.0560296022       13.7777057511       14.7894344144
  O        -0.5576008382       -0.1239061379        1.7126263903
  O         2.6942721796        4.7221054652       12.1125237468
  O         8.8526366987       13.3781056729       16.4468967931
  O         4.1146231719       16.4810219846        5.4414596343
  O        13.5024849038       16.9836557428       16.3633458307
  O        18.1779554178        1.2976623057        9.6140634374
  O        16.5815769182       17.5555562717        4.0376590556
  O         5.7242857879       17.9821669395       14.7355990835
  O         4.3310706003        0.8110275755        2.3499984606
  O         1.9541492947        9.7037686699       -0.6408708806
  O         7.8685513967       15.0606725776        2.1650057062
  O        -0.0222365566       17.4509424482        3.4863635173
  O         0.8374392709        6.8892030090        3.0957417098
  O         8.1310272390        2.5046787098       17.1870835328
  O        10.1487283901        1.0880056176        3.4120542672
  O        12.5211951541       15.9268483269        6.7400114554
  O         0.3862597014       15.3464373458        5.1028258245
  O         4.6629275089        0.4921387107       11.3169005123
  O        18.5696927348       18.2173048998       17.2165420198
  O        17.4419693728        4.0599035975       -1.8128862259
  O         6.4709976632        2.1435751976       12.2520392693
  O         3.1079368823        9.8407614564       15.6404073717
  O         6.9400634666       13.8528715464        0.0838338735
  O         1.3787444702        4.9648941517        1.2814364074
  O         4.3645184366        7.6163771250       16.5368201815
  O        15.3206376957       16.4785830945        8.4397112087
  O         1.4778337774       16.1704695621       15.3974712924
  O         4.5749568506        0.9110330811       15.5982387473
  O        15.5400886908       18.9084215615        6.1042101433
  O        14.6499820377        5.9405461110       16.4796883677
  O         1.5774146748        4.4594548837        3.8198179276
  O        14.3456826375        8.0910506223       -1.4419909958
  O        -1.0081723925       14.3048225721       12.7360166928
  O         1.6699517101        4.5812525865       -1.3507958404
  O         0.0173917641       11.7836191116        3.0905567440
  O         3.9183146228       -0.0387043656       -0.1715138517
  O         0.4087439664        4.8816960215       10.7151280173
  O        10.0372409349        0.8038186884       16.3106673988
  O         4.4159734852       17.3107533774       11.3630241621
  O        16.4658436660       12.8207718650        4.4305600160
  O        12.7713461559       17.1097505651        2.0478354113
  O        16.9956481559       -1.0050855787        9.5062559668
  O        16.0944961219        4.3104447148        1.6298049904
  O         3.2351926639       16.7465069748       -0.2658953274
  O        -0.6716157300        5.6862155728       -0.2610253108
  O         3.6214752994       12.7804897074       15.6790649650
  O        14.0647821560       15.1251923091       11.6395868809
  O        18.2428086571        2.5448296291        1.0986292096
  O         6.0286391268        1.1739335336        7.4888776227
  O         2.0545190798       14.7448738796        1.1403286664
  O        18.5147186217        4.8620716670        2.6398149655
  O        11.9864628577        8.1269412129       16.5864204102
  O         8.0497358402       -0.4251978407        2.5543191355
  O         5.9574203386       18.5397100168        9.3479440151
  O        10.2030227812       11.1580851791       16.9085495186
  O         3.4184338474       -1.0568006225        7.4332282930
  O         0.2186970907       11.6056057682       -1.8764056465
  O        12.1898588786       17.5406069394        4.6103147390
  O         3.1558993926        4.0367141979       14.8064928710
  O         3.4209624036        2.5646434132        0.3271007655
  O        13.7913752619       13.3838811261        4.6094435412
  O        17.9476102771        2.9977119075        5.8864747655
  O        11.9875255310       15.1283636663        0.2468035522
  O        18.6176451179       -0.2961430462       11.6253525089
  O         5.3903989005       11.6364395354       -0.2837859129
  O         8.8655989505       -0.6737175697        5.0292532448
  O        16.1942497413        0.7852290852       11.4019921956
  O        14.8322712474       -0.3239144678       -1.8359965691
  O         5.8400027277       -1.1443477226        6.4062035799
  O         9.9748286267        1.6345435007       -0.5958823428
  O         3.9785397640       -0.3204199687        4.7080387346
  O        17.3632957111        5.6945799544       14.3554697987
  O        10.5393447681       17.7589212174        6.8807822693
  O         4.7599499104       13.8733515803       -1.4451345147
  O         2.2461916100       16.5966789639        3.7030002766
  O        13.4975877660        3.8322986439       -1.8700621240
  O         5.2132204741        6.7352312389       -0.4770189097
  O         5.9048940504        1.5695190725        0.2366311975
  O         1.2906433731        9.4775151559       13.1461011405
  O         8.1277659343       -0.6102632549        7.6627905217
  O         3.2790062626       14.7347007608       11.0026881134
  O         0.8915473442       17.3075502500        0.9064843106
  O         1.6505353912        7.8861532183       16.8741539966
  O         9.5650081940       14.2277958036        0.2720319726
  O        16.5356255334       11.1857773589        9.8439940624
  O        17.4065466502        1.7865602895       16.0852817291
  O         9.6309982754       15.9048828865       15.6676024533
  O        14.2764838619        1.8000550906        6.9563567661
  O        10.8108062951       18.0592553928       14.8956700851
  O         8.1537175960       17.6103824523       14.4097438895
  O         6.8640349495        7.2921572689       -2.6361397054
  O         3.6592756304       14.4405445709        3.4878430893
  O        10.0756522441       16.2891268569       13.0073774622
  O         1.8913390614       -0.6421675258       -1.7692995102
  O         3.7098969964        2.4486365724       12.7089544298
  O        15.6162192120        3.5665749170       15.8447243965
  O         3.1289890750       18.1731765849       14.7148293922
  O        17.4153538521        0.5935006142        4.6021560077
  O        17.0598742526       -0.6830575424       13.8371752162
  O         8.3719314315       11.2300572821       14.8883248056
  O        13.8474883926        5.8251623499       -0.2698006165
  O         4.8018231734        2.9096572262       10.2264778872
  O         0.2282520010       17.2452373756        8.2677826672
  O        13.0663228802       18.6228135399        6.7324129745
  O        11.6126423784        5.8847937899       -1.3472914793
  O        14.6317550892       -0.1868398910        8.7059631006
  O        16.6131527856       17.0347104155       15.7977275965
  O         7.8361741068       16.3547806242       -0.1895858685
  O         0.4139356385       13.7576524230       15.7790192159
  O         5.2222309085       10.9680746101       16.4614745355
  O         1.9702031037       17.0787542774       10.3686407250
  O         4.8882848718       16.6626050671        2.8000355253
  O         1.2718551314        3.0958197268        6.0011837635
  O         1.5498655320        1.2364089901        9.6265878773
  O         8.1702158719        5.0082200305       16.1740812440
  O        14.9601106700        8.2989299123       13.2376079076
  O         1.1042158210        8.6156406279        4.8785176520
  O         5.7656768836        3.8922742070       16.8780515295
  O        10.9778132730       14.6324671536       17.3679348742
  O        15.4112123986       15.3377914033        3.9278572094
  O        17.6872182425       12.1349254551       15.8017163619
  O        -0.2695588111       10.8760080245        8.8740580670
  O        11.0289052755        5.9084824636       15.3438100808
  O         0.8953944129       18.3403971900       13.6193811905
  O        18.2674822482       12.7164488057       10.7495794791
  O         1.5443233566        7.0472125633       -0.1328464382
  O        18.3672696761        6.4456180743       16.6296520922
  O        -0.0858103968        2.9553492029        8.2170542268
  O         2.5449132612        7.5969695069       14.5140788927
  O        -0.5484061908        0.9916984505       13.8844340890
  O         0.7399482001       12.2408051010       12.6561303918
  O        14.1274591186       12.2863456609       -0.0066642423
  O        10.3771271842       17.8805260840        2.7119658982
  O         1.3883953329        7.0781484005       12.2167430786
  O        -0.1199905075        0.8337768290       -0.6167543935
  O        18.6226373670       15.7431766911       16.4533964419
  O         0.1049281514        0.3415747914        7.4769245364
  O         7.4198621712        0.6192220476       14.1554654022
  O         8.9897664189        2.3508107529       12.8699190930
  O        18.3914078834       16.8990766457       12.9907820304
  O        16.3945620488        6.4154142992       -0.9263996810
  O        14.8081473670       -0.5438703953       14.9059905930
  O        13.3765691168       12.9524271053       16.9162636778
  O        15.6621039759        2.0899834503       -1.2923577116
  O        -0.1416564540        7.7168484292       14.5566818803
  O        17.3566838762        3.5606007674       12.8678612595
  O         1.1621481993       17.8056502673        5.7340586259
  O         2.6170945663       12.3983040314        2.2913066980
  O        12.9387376419       10.3072342993       -1.4358229366
  O        16.6236834187       15.7215917137       11.3131547840
  O         4.3697462291       18.0858383423       16.9902999193
  O        14.1270246722       16.6165266138       -0.1222553993
  O        11.5282441442       12.4591545005       -0.3716616507
  O         7.1986722944        3.1354009845       14.7279821636
  O         6.6924854512       18.3410061477       12.1572864927
  O        16.6609438586       12.1285628037        0.7190733828
  O         2.4260542265       14.6675289246       17.0933582747
  O        16.0416830686       16.6332379165        1.6150741592
  O         1.9600797039       -0.3380928143        2.7071076030
  O         0.3285697385        5.1116032594       13.4010399022
  O        14.7704509097       17.5507900788       10.9173302381
  O        16.6869455070        8.1353380955       15.3540362900
  O         7.6025073496       11.2353708678       17.6025232596
  O        16.0481199732       10.4372346740       14.4303214671
  O        16.7843360658       16.6731266890       -0.9568739663
  O         0.7737087697       11.6497880521        0.6013820685
  O        19.0555091486       15.7631457152       10.5085682186
  O        19.2920220979        5.1866855083        6.7472010955
  O        16.6665188765        0.1963873442        0.2338090389
  O        17.9437225418       -1.3678495947        6.3186445750
  O        17.7791580456       12.9012402335        8.0419890324
  O         0.6836075340       15.6341315654       -1.0265859330
  O         2.7266467911       12.2185816750       -1.1887410506
  O         5.2107181581       10.6765869491       14.1355148859
  O        11.3354447952       15.4236366051        3.3485029690
  O         5.9391464416        9.2730826726       -1.1145924819
  O         2.9100285557       11.4852000615       13.7497059814
  O        17.0582499343        2.8201543581        3.4013318171
  O        12.5817408160        0.1407008121       16.0493187021
  O        -0.7684208583        8.7660492268        2.8613731009
  O        15.6032016957       13.1703174093       14.5780854523
  O        14.8005183697       13.3441434435        2.2810127070
  O        13.1740508817        4.3394173069       14.8550558659
  O        11.2894260527        2.4550213646       11.5506393550
  O        19.1215450791        3.4410998977       15.1351202708
  O         9.4479715483        7.2056514446       17.0200433381
  O        10.7627945978        3.8504230289       13.8990998373
  O        15.2639220464       16.6027833119       13.4348063617
  O        11.5889702296       17.7331630339       -0.2203357793
  O        -0.5277348657        8.6733073921       -0.8209541193
  O         0.1674062807        2.1356160686        3.8817354917
  O         5.0933390787        4.5628510106       13.1287562164
  O        14.1199009467        9.2498010693       15.6958476618
  O        15.6207200610       14.4861800164       -0.0678240730
  O         0.6015666790        1.0189938903       16.2275182591
  O         1.4160075274       14.8730771812        8.7077649870
  O        12.1224194654        3.8121717341        0.3203063849
  O         0.5150661304       11.0462621090       15.0793361108
  O         8.2428896724        5.7129881159       -0.6897178007
  O         2.8140748763        1.9385992054        4.0685045269
  O         1.7533577532        9.7039620852        2.4958232285
 Na        10.5901722890       11.3665319327       14.1972174100
 Na        18.7766294666       13.9203305382        1.0695273329
 Na        14.2004728499        3.3155478905        0.8745756063
 Na        17.2724724579       10.5323637092       -0.4975862557
 Na        18.5702669646        6.7706786978        5.4004451130
 Na        11.5407746094        0.3553506816        0.7390502959
 Na         5.9968047645        4.2645240186       -0.2289436113
 Na        12.1651904256       15.1250512993       13.0900521979
 Na        -0.3026826814        6.1271759998        8.8693745677
 Na         0.4900885353       14.0446844108        6.8984608709
 Na        12.5063647431       10.3724505161        7.6953531158
 Na         5.2391778510        5.6171246142       15.0257115312
 Na        10.5059767404        3.1405330402        2.0785391030
 Na        13.9908636924        0.8157078835       10.7650277976
 Na        16.1516102840        1.5738550104       13.4289944071
 Na         0.4610684815        9.8826056720        6.8134562997
 Na         9.8210737223        3.8308062084       -0.9067474531
 Na         2.9993374424       13.8210938443       13.8494052766
 Na         7.9067957533        6.2572877417        7.1874165161
 Na        17.0853692530       14.9447248505        8.7502036120
 Na        -2.9659042729        9.9944438489       11.9252237295
 Na         8.9762719155        5.2500973241       13.7996555079
 Na         3.4668001371       15.3884209592        7.4828114187
 Na        15.7335700823        6.1345100323       12.4481419231
 Na         5.5148382674       17.1208912485        0.7397966202
 Na         3.0363562069        9.8925652954        4.5916397361
 Na         2.3818704947        3.5590057903        9.8163909629
 Na         1.3458944599        2.5387519949       -0.1321918287
 Na        17.8895341820        7.7410661665        1.0671257292
 Na         1.4445322408       12.9291175102        9.9622216451
 Na         5.5107603932        9.7336664066        1.4606982234
 Na        14.1879842108       14.9560613904       16.9323801791
 Na        13.2651138527       15.5315218550        9.4139685765
 Na         7.5248460100       17.1010205663       17.0962472346
 Na         6.6459454265       -1.7255112215        3.9609717574
 Na        12.1592212477        1.8792407150       -1.6719091835
 Na         5.9778455991        0.9935666749       -1.9720198801
 Na         2.3860275035        6.4862241146        5.7262020549
 Na        15.0745346399       12.9198369079       10.8191685312
 Na         6.2649879046       13.7273073531        2.9407571263
 Na        14.5133193983       19.0552852406        2.5705855741
 Na         3.6595788229        6.1497204282        0.9981112780
 Na        -0.8574290066       13.6047483461        4.1286366769
 Na         2.6061648003        1.5486916816       14.5585273027
 Na         3.5648624959        0.7286991986        8.5734784688
 Na        13.3364204610       12.9026633466       14.8033455157
 Na        14.9255089726       15.8119596817        6.0587024677
 Na        16.6269260799        2.1189230154        8.0908878562
 Na         8.8087442967       -1.1320798225        0.4976751599
 Na         5.5078026229        1.6780152837        5.2932175603
 Na         7.6554002696        1.5926783108        1.3609373667
 Na         3.6529077495        3.5608956496       17.0590242519
 Na        18.0236496432        3.5620702940       10.7238432964
 Na        12.5934643622       13.9114191116        2.4211970706
 Na        11.3432708399       17.0941252626       -2.2345949220
 Na         6.8148759186        9.3103256096       15.2290499472
 Na         1.5893449757       -0.2576639398       11.5230140218
 Na        17.4623449933       10.8069908004        2.9101419294
 Na        17.2992159253       14.8526768284       14.8040747694
 Na         1.3983742961        5.1136635438       15.8269782153
 Si        -0.8235546632       12.7222139590       12.2901558904
 Si         3.3057632843       18.2376871795       -1.1211640298
 Si         5.4120117901       13.2714003562       -0.1352923213
 Si        14.8322723991        6.5797003606       -1.3894732118
 Si         0.7001189547        8.6214171566        3.3236724697
 Si        11.6460338835       16.9979017210        3.2304857439
 Si         5.5276098745       18.5359646408       10.9757203301
 Si         1.4487536029       11.2615677986       -0.8213843893
 Si         0.9461339422       16.7037716541        4.5791133859
 Si         3.3700424344       13.3932850203       17.1906162885
 Si        15.1325072241       16.2380255576       11.8306053032
 Si        17.8611146371       11.8870958343        9.3342248845
 Si        18.1912779434        0.9247200375        0.6504305016
 Si         8.7538971146       11.7025458986       16.4202948383
 Si         6.4348038209       -0.3485253645        7.7938989881
 Si        15.6287168927       16.1137006513        0.1267613092
 Si         0.2535117389        1.3905584119        8.7766101687
 Si         0.3558225342       -0.0536750498       -1.8935665834
 Si        17.8733515815        7.0482986704       15.1583588394
 Si         9.3438830706       -0.3422151300        3.4337022645
 Si        15.2045874257       13.6976964338        3.8958605155
 Si         5.5558449683        7.7438768821       -1.5995532679
 Si         4.3982125105        1.4027668895        0.7403149803
 Si        10.6563369555        2.3917826321       13.0211848844
 Si         4.9187808050        2.0493484651       11.6495661634
 Si         3.0737794381       16.2998067202       11.3567884420
 Si        16.6398521919       16.1255025238        3.1274413020
 Si         1.0372793188        5.5152612850       -0.2382368683
 Si        10.9623429223       14.0832807217       -0.4804007829
 Si         1.7180032375       16.0968823721        0.1951859331
 Si        13.0500548813       12.1292739381       -1.1655167542
 Si         1.0162967699        8.3407503500       -0.9950418115
 Si        17.7090657050        5.6522874198       -1.5088635777
 Si         8.0776423016       14.9891039880        0.5762958003
 Si         0.8665977903       15.1687436459       16.6113476000
 Si        17.6761713570       16.9040086923       17.0922626371
 Si         3.1633906042        0.4207927093        3.4296973305
 Si         6.9474700542       18.4797874528       13.7948621452
 Si        17.4220629531        0.1992213779       10.6082885144
 Si        13.8987281689       -0.8909114109       16.2223319107
 Si         3.1556782280       13.8708969987        1.9545778238
 Si        12.6649099928        4.7800405687       -0.7599375760
 Si         7.4825975951        2.1153922607       13.5171043547
 Si         3.8236369479       16.0758977908        3.7720774574
 Si         9.0673491952        1.1366930332       17.5938578659
 Si         8.1311614909        6.2717709638       -2.1307468842
 Si        12.0830302680       17.3786712950        6.2428073718
 Si        15.9612494275       17.7303203709       14.4722338742
 Si        16.9015267570       -0.7977164071        5.2126678478
 Si         1.5970300362        2.8833038124        4.4563850020
 Si         9.6210986742       16.9487372861       14.3869734816
 Si         4.4901675801       -0.6355534620       15.5340763468
 Si         7.2407427854        3.5940474822       16.2845432509
 Si        14.1924182086        4.3335306180       16.1113691819
 Si         8.9720194577       -1.4634893605        6.4737828138
 Si        18.1492904681       15.7801337475       11.8623291748
 Si        15.1803456903        0.5948910743       -0.5371834677
 Si        -0.0702764639       12.2010892443       15.9936586321
 Si         0.5760377958       18.2418932127        2.2500629535
 Si        15.3458346552        8.9107038230       14.7327171952
 Si        11.4872949120        4.2925790407       15.2764437483
 Si        18.0459713618        2.1092825188        4.4746189899
 Si        18.3315034177        4.3597912073       13.8889802172
 Si        15.4496397278       17.7800027704        9.3592045708
 Si         1.1501375920        5.4231254102       12.0241803884
 Si         1.3682663398       11.0687793052       13.6886233088
 Si        -0.1022157181        3.6274852998        6.6614335564
 Si        18.8132842223        1.8351244349       15.2871860354
 Si         1.2184960291        7.9530381228       13.6007306048
 Si         3.9955627163       11.1477245930       15.1449400878
 Si        16.5386780425        2.7870490980       17.0038383877
 Si         0.1438117982       -1.2006099363        6.9514590563
 Si        17.4768311580        3.6531873543        2.0722463772
 Si        14.3449857421        0.1829225910        7.0373932081
 Si         1.9354930906       17.1859256976       14.2260500408
 Si         4.1656524546       -1.3951511952        6.0848248336
 Si        10.0892734917       14.2932391639       15.9507717164
 Si         6.0050162390       10.8500880485       -1.5915376322
 Si        -0.7758278193       18.6145798734       13.2000303601
 Si         0.7055467721        5.3549237384        2.7154660623
 Si        12.5481528903       16.7014252462        0.4568902061
 Si         2.9635191546        8.2675263472       15.9879887304
 Si        16.5980788403       11.9223003878       14.5617755082
 Si        15.3625252659       13.0699724834        0.7963474066
 Si        11.0986677375        0.2294940760       15.2905627493
 Si         3.6359836844        4.0778467958       13.3045140553
 Si        11.0141442585        6.7709954344       16.7138326666
 Si        13.3052957982        9.0304222241       17.0514487205
 Si         1.2856121572       11.3304563266        2.2113973208
 Si         0.8456545670       16.2187283787        9.4005801613
 Se         7.9971681138        4.7755742061        9.6988424530
 Se         4.4331148266        7.3855327550        3.5842312748
 Se         5.3413721090        4.5025954570        6.3272345493
 Se        10.9059935155        7.1142884694       12.0772643037
 Se         7.8234054189        4.3714736531        2.3682619388
 Se        10.9133489339        1.3997692393        8.0158680974
 Se         3.6546413007       11.0388985912       10.4637515164
 Se         8.7029586603        7.6327976717        4.8222159778
 Se         1.9042656732        7.7744099242        8.3541442978
 Se         8.0570890439       11.1862185717       11.4570499594
 Se        11.7624196774        5.7747445426        2.8515245685
 Se        11.2385375976        5.3239163083        7.4123347433
 Se        13.6709580390        8.3147516319        9.2496375876
 Se         6.4779534546        7.4217473296       12.6877697612
 Se        12.9873098976        2.0145168996        3.7572323323
 Se        14.8646619921        4.0643487227       10.0417699918
 Se         6.1739304488       11.1929317304        4.1802368924
 Se         2.6279169272       11.9744309108        6.8941318708
 Se         6.4864688316       13.2016940658        8.3580024244
 Se         9.6696160043        9.1605280488        1.6838356270
 Se         5.8524837621        8.5658988880        7.7328701037
 Se         9.8622942176        9.5498864459        8.3767758879
 Se         6.3670545541       14.4660647093       12.5276345931
 Se        15.0923523499        8.4329131729        2.1328945286
 Se        12.3365520777        9.4156851464        4.9275200018
 Se        17.6740204648        7.6542981273       10.5559335342
 Se        12.8407343901       11.3981258955       12.1091030489
 Se        15.5429970270        5.6781462292        5.7360651409
 Se         7.9251547669       16.0258783073        5.9348091212
 Se        10.3988661125       14.1963439174        9.8004408886
 Se         9.9399347141       12.7651192185        5.6330990482
 Se        14.0341173576       12.7700046354        7.9433299555
 Se        16.8608070360        9.5284404223        6.1568159380
 Cd         6.1812413248        8.8035286990        5.0681431629
 Cd         6.0235525920        5.2819641920        3.9486275697
 Cd         6.3799398677        3.1902084219        8.2820385796
 Cd         6.0132298819        5.1774677825       11.2948608145
 Cd        11.0279674682        1.4309663447        5.4071997777
 Cd         9.7373275092        2.8005819191        9.9804804750
 Cd         0.3730198484        9.0520226404        9.9866445790
 Cd         9.6176285275        9.9304708107        5.7558058938
 Cd         3.5252539673        9.7244842281        8.1745415098
 Cd         4.9662468983        9.6292018918       12.1657448997
 Cd         9.2328009824        6.5911634232        1.2751893916
 Cd        14.5021374033        3.4947474774        5.0572694143
 Cd        11.2366533169        7.1499639701        9.3615565199
 Cd         6.8936663240       12.3403054081       13.7177451811
 Cd        14.6267719172        5.7833779489        2.7143206562
 Cd        12.9055402291        3.0786670026        8.4755448538
 Cd         5.1991282527       12.2286742549        6.4285393124
 Cd         4.9176872595       13.3374839718       10.6950269653
 Cd         8.7614450308       15.0162553233       11.6754427972
 Cd        10.1318564768       10.0594397324       -0.6749563418
 Cd        12.0190987056        6.8333136955        5.2796261787
 Cd         8.8556278953        8.7175062815       11.7179288632
 Cd        10.5949628632       11.5773692952       10.6535173316
 Cd        12.2333889176        8.4697390407        2.2392079370
 Cd        14.8443180786        8.6344382580        4.6557714289
 Cd        13.0331585651        8.7416900559       11.9964800824
 Cd        16.3067270173        9.0430533261        8.7485847501
 Cd        14.3627107346        5.8641480018        8.1158687252
 Cd         9.2509157037       14.8658539088        3.8893806640
 Cd         8.9921753437       14.2638557026        7.7637144347
 Cd        12.2947582369       13.7673325909        6.1218566982
 Cd         7.1996074089       10.5499336508        8.8141688140
 Cd        16.0245398964       12.0565374182        6.4405385036
