426
 i =     5600, time =    11200.000, E =     -8405.8701339910
  O         8.1447244076       -0.2808379184       17.8307781982
  O        14.1835121053        0.6173431141        0.6639649090
  O         4.6154835183       13.2400330484        1.4269584650
  O         2.6165517611       15.9713246615       13.0339541788
  O        11.0258378754        3.1652085272       16.3782060834
  O        17.9788987936       15.0578458724        2.5638949743
  O        17.8594971062       11.6969979670       13.1800887950
  O        11.2256832746        0.8017192745       14.0044663108
  O        11.3530657637       13.3767356565       15.0148358667
  O        -0.4265270734       -0.1866858576        1.9669342774
  O         2.7220985660        4.4052570449       12.3114067063
  O         9.0867553207       13.1061827963       16.5032020080
  O         4.8588839667       16.2603126739        5.4861702077
  O        13.3407043273       16.9165535167       16.4447710829
  O        18.4103419647        1.1267838167        9.7708828699
  O        16.8340622872       17.3831204735        3.9943465958
  O         6.0388297368       17.5821734691       15.0611437390
  O         4.6210427488        0.6366539267        2.4662955225
  O         2.0843607955        9.5865690926       -0.3270203584
  O         8.1635854283       15.0174138471        2.3877757491
  O         0.3471043501       17.4069629637        3.7619739337
  O         1.3547365365        6.6311762113        3.1059105573
  O         8.3393070420        2.1913845870       17.0525253560
  O        10.1336463091        1.0127227120        3.9766736865
  O        12.8619542684       15.6891875615        7.2058344564
  O         0.6518887577       15.0160238419        5.2148103348
  O         4.8552465576        0.1785196678       11.1457311882
  O        18.7613950649       18.2576725689       17.4169450593
  O        17.6703526498        3.8077132265       -1.7514255991
  O         6.4777270079        1.8966176556       12.4337714082
  O         3.4186140944        9.6737445988       15.9693808725
  O         7.0574768287       13.6628684079        0.4774695214
  O         1.6984187309        4.7636707299        1.3048838358
  O         4.3950767088        7.3432536886       16.8401251075
  O        15.9720525010       15.9528649335        8.7234876977
  O         1.4773711456       15.9810766703       15.4527476679
  O         4.4559307752        0.4232320497       15.9768773316
  O        15.4774313239       18.3148770317        6.1043097682
  O        14.9114436355        5.6068722169       16.8018660818
  O         1.7741549986        4.0862693247        3.8583824955
  O        14.7079602478        7.9228139846       -1.2380882013
  O        -0.4903639244       14.0366728931       12.9478623043
  O         1.9263180113        4.3590585343       -1.2773391686
  O         0.0730191390       11.6206801877        3.6636529417
  O         4.6449579148       -0.4300446095       -0.0886724131
  O         0.6612369932        4.7946173113       10.6297704990
  O        10.2595168895        0.3023503123       16.4747517640
  O         4.6388407037       16.8744996253       11.3201330259
  O        16.6168454827       12.6481266051        4.8449691721
  O        12.9609180029       16.6515582762        2.2564018705
  O        17.4013681886       -1.3013503543        9.7232527591
  O        16.2954933305        4.2920733229        1.7076196391
  O         3.2810558548       16.6426350027        0.0162826841
  O        -0.3457903460        5.4198501195       -0.1440163652
  O         3.8479306734       12.3849663813       16.0794683265
  O        14.2307354238       14.8906671874       12.1494416574
  O        18.3020736711        2.3684827633        1.2789709840
  O         6.9055740977        0.8092668425        7.9428246659
  O         2.3335682690       14.5664435562        1.5698017850
  O        18.8160262544        4.6615542921        2.8301365972
  O        12.1661126948        8.0208110057       17.0353518234
  O         8.5507534609       -0.6263704823        2.4174542175
  O         6.2402934059       17.9850646356        9.5745762296
  O        10.4005497693       10.7366607406       16.9192279515
  O         3.7967273954       -1.5058836216        7.3958472058
  O         0.2574189834       11.2919989017       -1.4490040356
  O        12.6457879626       17.0735204121        4.9119442967
  O         2.9605605006        3.3037043772       14.9132433640
  O         3.4923474844        1.8759279942        0.1944043809
  O        13.8793235867       13.3124041916        4.8595841029
  O        18.1234956587        2.6662903237        5.9414002697
  O        12.1129739239       14.6996047634        0.6955913357
  O        18.9653467149       -0.5584982452       11.6670670798
  O         5.7978552443       11.4902058826       -0.0687341636
  O         8.9304559611       -0.9737634710        5.1787015934
  O        16.4321971011        0.7049549976       11.2993359364
  O        14.9217322343       -0.4290795253       -1.7158975395
  O         6.2425764539       -1.2026857644        6.6202880331
  O        10.0291708870        1.2596305144       -0.4909764949
  O         4.1472787631       -0.4320099748        4.8658944758
  O        17.4652370585        5.4854604099       14.4875457523
  O        10.7344653143       17.2083014119        6.7419814659
  O         4.8279808330       13.7018861420       -1.0978690077
  O         2.6981439832       16.5402139368        4.1216933231
  O        13.5350012368        3.6535004556       -1.6579313954
  O         5.2657550302        6.7496729063        0.0155346362
  O         6.1651419559        1.7027382755        0.5093974028
  O         1.3959909251        9.2605912265       13.4355282176
  O         8.4333162687       -1.3155490441        7.8594277015
  O         3.3195702333       14.4452435424       11.0754901812
  O         0.9868517713       17.0180154200        1.2246547932
  O         1.7029293254        7.9744844957       17.0818357761
  O         9.6486025434       13.8357346490        0.4619949495
  O        17.0245437997       10.8691207236        9.9498340451
  O        17.5097364346        1.4790946974       16.1904809210
  O         9.9909180975       15.6826325886       15.7197866773
  O        14.6674507707        1.2002006117        7.4671353633
  O        11.0202402998       17.8893170751       14.8676097530
  O         8.4453041522       17.2842539721       14.3281438538
  O         6.9386172226        6.9835360556       -2.2588953891
  O         3.8591843800       14.1676622937        3.8701162429
  O        10.3437768670       15.9402752476       13.0472518738
  O         2.0250320365       -0.6626319664       -1.2526613724
  O         3.7351692503        1.9552883308       12.7339372246
  O        15.5884571708        3.3247797209       16.0099243451
  O         3.4744462783       17.6665327327       14.7245191942
  O        17.4173718268        0.3963050305        4.8453153089
  O        17.4392205293       -0.9372697488       13.8566473062
  O         8.4911225478       10.7989063302       15.2512636494
  O        14.0822667302        5.6991057265       -0.0205954881
  O         4.9112336768        2.7781864528       10.4943948354
  O         0.1442258499       17.0258135821        8.4980601890
  O        13.1085803379       18.3040222481        7.1128837420
  O        11.7629278648        5.6943814400       -1.2142401332
  O        14.8641281413       -1.0205323623        8.8196543011
  O        16.8071029202       16.8863944528       15.9519990092
  O         8.0567092523       16.1278279303       -0.1526022518
  O         0.4485540678       13.5092602163       16.3858479070
  O         5.7122727125       10.8290154758       16.5005472853
  O         2.2721879282       16.8935607310       10.4280558854
  O         5.2060117625       16.1600254549        2.7434370324
  O         1.4323767631        2.8251800719        6.1548542441
  O         1.8319186031        1.2793231373        9.5062230144
  O         8.1886191251        4.8285374107       16.3534482105
  O        15.1776531269        8.0136345737       13.5009386038
  O         1.4501272505        8.2615112264        5.1422642076
  O         5.9622023591        3.3572568496       17.0073277454
  O        11.2428357456       14.2271386196       17.5865436138
  O        15.7198333816       14.9939747200        4.1031060176
  O        17.8981624345       11.6858723440       15.9651222680
  O         0.4283937097       10.6771131463        9.4389588319
  O        11.3518279578        5.7263512963       15.5212468747
  O         1.2400296901       18.1449284344       13.6981132173
  O        18.7079406773       12.7312819245       10.8023945615
  O         1.8395845176        6.9062833138        0.0214423797
  O        18.4553871010        6.1537174754       16.7758789292
  O        -0.0491042697        2.7796375572        8.2078274337
  O         2.6317048671        7.3832355147       14.8430793243
  O        -0.3915036080        0.6400816587       14.0293352702
  O         1.0104474880       11.8710440690       12.8121257876
  O        14.0389028598       12.1449478910        0.5550140954
  O        10.9014420015       17.9418160347        3.2068436059
  O         1.6683568951        6.8034948974       12.4684304098
  O        -0.0144751080        0.8517536319       -0.3715728554
  O        18.7918937610       15.7139639364       16.8554270703
  O         0.4473573484        0.1777111240        7.5630612676
  O         7.5096637370        0.2421752915       14.2006275423
  O         9.0672146782        1.9749773377       12.8868221753
  O        18.7733791066       16.6848945143       12.9753188091
  O        16.6242451390        6.1861559018       -0.7002284738
  O        15.0168131133       -0.7393738737       14.9548105256
  O        13.8223540404       12.5227432303       17.3015371855
  O        15.8883522166        1.9644794359       -1.0645018212
  O        -0.2639403569        7.4827043214       14.3584496858
  O        17.2198581635        3.2916405266       13.0390435780
  O         1.3254669041       17.4239666931        6.1335874071
  O         2.6111185514       12.0617247819        2.7974358696
  O        13.2481258424       10.1513651714       -1.1256640585
  O        16.9697128110       15.1456962771       11.6316610925
  O         4.3466612097       17.4271849907       17.1967159362
  O        14.1542470589       16.3361722379       -0.1005035207
  O        11.6982618001       12.2470011982       -0.3002087445
  O         7.4058009399        2.8851649788       14.7374959324
  O         6.7824181248       17.9845255411       12.3263420198
  O        16.8116801075       11.8262621922        0.9036559796
  O         2.6299919224       14.4011836245       17.0159047614
  O        15.8009255829       16.3855113792        1.8279824044
  O         2.1681837731       -0.3440326764        2.8174371775
  O         0.2242003466        4.8336824330       13.2824851266
  O        15.2402359875       17.0861963273       11.0765130970
  O        16.8155296793        7.8568933963       15.6938728886
  O         7.8791931281       10.9395938035       17.8895387584
  O        16.2581505566       10.2171135371       14.5683486937
  O        16.8723875937       16.5008910292       -0.7378111700
  O         0.8286305549       11.4770977863        0.9602057809
  O        19.3965614091       15.4935037965       10.6620648092
  O        19.1767600157        5.1249571984        6.6337811255
  O        16.8219623905        0.1285462290        0.3536771810
  O        18.1496445180       -1.5850799177        6.4441733958
  O        18.2855352721       12.4464461875        8.1164871625
  O         1.1005935486       15.2298009673       -0.6820515148
  O         2.6775647005       12.1945247802       -0.8209067872
  O         5.5409165592       10.4904745930       14.3047972611
  O        11.1419356017       15.1732709952        3.5171887989
  O         5.9394384606        9.1183859599       -1.0078731187
  O         3.2449928847       11.1818619107       13.9542097770
  O        17.1808840390        2.5821962814        3.4950574303
  O        12.8518997663        0.1361915154       16.0376100676
  O        -0.7399991408        8.2293105685        3.4297718164
  O        16.0049681348       12.9185300214       14.6255863596
  O        15.1540224104       13.0904073603        2.5481339717
  O        13.3023639207        4.1304333782       15.0884657893
  O        11.3075210736        2.2039900287       11.6399964005
  O        18.9874196981        3.1959322125       15.1000321460
  O         9.6404981166        6.9418638977       17.0620626931
  O        10.9931550053        3.6508550244       13.7943216028
  O        15.7420401703       16.4355436766       13.6581616621
  O        11.5823521557       17.2304876218        0.0071568526
  O        -0.3243448448        8.3405176769       -0.5750528336
  O         0.2953240077        1.8647491010        4.0406876603
  O         5.0268305059        4.3092037804       13.4075777230
  O        14.3258191466        9.1425087647       15.8623180752
  O        15.6029718823       14.2274651695        0.2153319910
  O         0.6127222336        0.9536188438       16.4321984340
  O         1.4763803624       14.8355625165        8.5417362592
  O        11.9855800722        3.6447923946        0.3808897554
  O         1.0283474548       11.0960846877       15.4134684959
  O         8.3019601446        5.5467437710       -0.3305172171
  O         2.8872159989        1.6475209822        4.4316434019
  O         1.5379318531        9.4715516624        2.7470191783
 Na        10.9179545180       11.0005307616       14.6947400332
 Na        18.5974149365       13.4519761254        0.8632096893
 Na        14.5061873598        2.8227413290        1.3363943709
 Na        17.6422800987       10.3571942356       -0.6098898615
 Na        18.5225343324        6.7978364878        5.3204221340
 Na        12.1034903425        0.0594824059        1.1533924887
 Na         6.3163451007        3.8423194143       -0.0661947797
 Na        12.2235364828       14.4229762572       13.0548058073
 Na        -0.2360388842        5.8847389137        8.9682844189
 Na         0.5942871082       13.3840771133        6.9564346403
 Na        13.2638158008       10.0175516815        8.1081882459
 Na         4.9082350700        5.1332095638       15.4832232815
 Na        11.1500872689        2.9698450252        2.8350380421
 Na        14.3457971841        0.3622754494       10.4578356235
 Na        16.2384078532        1.4244476231       13.6027737684
 Na         0.8083334767        9.6285771014        6.8146486561
 Na        10.0286396177        3.5883536559       -1.0622016872
 Na         2.9520384499       13.5124417376       13.4532488537
 Na         8.2868778377        5.9642892828        7.3402450456
 Na        17.7138419842       14.3989833504        9.1771149536
 Na        -2.6200802264        9.8042047652       12.0925811799
 Na         9.0783683147        5.0673262130       14.0631957064
 Na         3.6025928392       15.5348157572        7.5873694074
 Na        15.7755518525        5.5313202087       12.6086438166
 Na         5.7476916373       16.8609951892        0.6945792920
 Na         3.6082856313       10.1810430116        4.5499508466
 Na         2.6800433054        3.5359572307        9.8864823307
 Na         1.4108112866        2.5535159639        0.3970634119
 Na        18.1814031676        7.4596459886        1.2817092764
 Na         2.0131537973       12.7767364198        9.7297112928
 Na         6.6115711959        7.9139033996        1.8222021232
 Na        13.6557863872       14.8884286701       17.1711385030
 Na        13.5580131113       15.4678196721        9.4722932227
 Na         7.5536846478       16.9805583347       17.1851496769
 Na         7.1285720400       -2.2669613815        3.4272484453
 Na        12.1726437959        1.6641008060       -1.3108351098
 Na         6.1688957407        0.8919771914       -1.7963562145
 Na         2.5701994856        6.5823040559        5.9864474347
 Na        15.3673603050       12.8171984710       11.5908703642
 Na         6.3890297656       13.4152651768        3.2157778393
 Na        14.9616373635       18.5691929991        2.6478233190
 Na         3.4850926178        6.3706531302        1.4099941197
 Na        -0.7434510608       13.5998629003        4.0991511201
 Na         2.6518821790        0.9886524353       14.6641800915
 Na         3.1402237246        0.6084334401        7.5906159683
 Na        13.8066550828       12.2207590065       15.1968316697
 Na        14.9434753120       15.6785393513        6.1227744447
 Na        16.5541628658        2.6250690711        7.4801999676
 Na         9.3166737802       -1.4701222309        0.4106431603
 Na         7.5352238577        1.1234281745        5.7585347176
 Na         8.1982555742        1.1481003803        1.2237365729
 Na         3.4921416105        2.7345974931       17.3462414138
 Na        18.1162582158        3.0386985495       10.9782116599
 Na        12.4521964578       13.4786791624        2.9136000294
 Na        11.0555458305       17.0668246390       -2.0453739787
 Na         7.0635728153        8.9721381598       15.6182076355
 Na         1.9218097221       -0.2473072415       11.0283609206
 Na        17.2358071650       10.9368506774        3.3808275546
 Na        17.5234519605       14.6192091482       15.2274869412
 Na         1.3607118776        4.5860370812       15.9596758385
 Si        -0.4333248339       12.5335181597       12.3660648854
 Si         3.5086721835       18.0655291722       -0.8899226975
 Si         5.6054446886       13.0865681442        0.1518869642
 Si        15.0631474877        6.3738745802       -1.1615319114
 Si         0.8445202198        8.2794596963        3.6548338673
 Si        11.8871693950       16.5622606183        3.5455427265
 Si         5.6738020828       18.1318897242       11.0853119145
 Si         1.5526658304       11.0930930110       -0.4462373805
 Si         1.2484762394       16.4103223838        4.8441810047
 Si         3.5038573297       13.2037836572       17.4610853656
 Si        15.4846710096       15.8853163858       12.1985187952
 Si        18.4207363920       11.5484010525        9.4928992276
 Si        18.3081060998        0.8112569598        0.8407316285
 Si         8.9178193857       11.4665313709       16.6248780880
 Si         6.8747184358       -0.7590800184        8.1371062949
 Si        15.6955011086       15.8267540142        0.2412422753
 Si         0.3504928584        1.2587176937        8.8236551425
 Si         0.5367823918       -0.0703570345       -1.6550993662
 Si        18.0010652839        6.8493955604       15.2985108356
 Si         9.6055047479       -0.5040791991        3.6788334101
 Si        15.3068638205       13.4060413184        4.2276601405
 Si         5.5815597708        7.4651728406       -1.3337438073
 Si         4.6944358062        1.0631286558        0.7894319372
 Si        10.7077176535        2.1392033122       13.1280056638
 Si         5.0093264952        1.7565330430       11.6672725748
 Si         3.2881878503       15.9702016236       11.5238886811
 Si        16.7044917059       15.9253523284        3.1172359147
 Si         1.3615258383        5.3792395401       -0.1809883549
 Si        11.0606726295       13.7636335061       -0.2289791240
 Si         1.9124301852       15.8520790029        0.5897328837
 Si        13.2721193436       11.7984675786       -0.8304181984
 Si         1.2443611861        8.2408062554       -0.7512673072
 Si        17.9075455683        5.3809714736       -1.3040554696
 Si         8.2747425176       14.7739796232        0.7849154854
 Si         1.0522166094       15.0564946138       16.9376058520
 Si        17.8099830414       16.8915760662       17.3177309183
 Si         3.4917758732        0.2629036303        3.6090771680
 Si         7.1459227308       18.0700848399       13.9443313734
 Si        17.7057510322        0.0193174492       10.6940685957
 Si        13.9765024081       -1.0354712462       16.3573559594
 Si         3.3009026629       13.5085330812        2.4552782407
 Si        12.8029015719        4.6606294910       -0.5218146894
 Si         7.6136376529        1.7400058649       13.6285388518
 Si         4.1882207067       15.8755368520        3.9319525614
 Si         9.1600195644        0.8963881710       17.5807773453
 Si         8.2369257306        6.0300008809       -1.8898034643
 Si        12.3355742890       17.0152554551        6.5299144725
 Si        16.2484155357       17.6560029032       14.6045325051
 Si        17.0256328937       -1.0484556110        5.3745529894
 Si         1.6640374637        2.6463864988        4.5536679858
 Si        10.0251160251       16.6756174278       14.3666338269
 Si         4.6298159258       -1.1376077463       15.7431402080
 Si         7.3884572238        3.2643673603       16.2899302368
 Si        14.3051137285        4.1326072509       16.3959540698
 Si         9.1848634727       -1.9437060783        6.5560107970
 Si        18.5212605753       15.4033758908       12.0034267222
 Si        15.4114292378        0.4749253360       -0.4236037778
 Si         0.0891435673       11.9630684240       16.3913185126
 Si         0.7823884941       18.1779040481        2.4290387392
 Si        15.5717189133        8.7412974146       14.8868119873
 Si        11.6555792389        4.0794104451       15.3078933188
 Si        18.1613751071        1.8156554856        4.5591638116
 Si        18.2505707188        4.1112612484       13.8900879192
 Si        15.9743937586       17.2800446495        9.5775070146
 Si         1.3231263788        5.2066876670       12.0743915091
 Si         1.7170710945       10.8268434941       13.9084554369
 Si        -0.0385953424        3.5228318069        6.7019539632
 Si        18.9118780237        1.5754508201       15.3403529188
 Si         1.3225088748        7.6972002995       13.8634995468
 Si         4.3470400927       10.8826409612       15.3625447069
 Si        16.6418658173        2.5990992722       17.0183162779
 Si         0.2197628552       -1.4063076332        7.2191280704
 Si        17.6270818990        3.5753281669        2.2574085097
 Si        14.5664149280       -0.3936294338        7.3425590721
 Si         2.1018216109       16.8587087091       14.2858879827
 Si         4.6483598987       -1.5164302312        6.0720351913
 Si        10.4325844226       14.0862183000       16.1043983237
 Si         6.2440183171       10.7086811070       -1.3876590777
 Si        -0.4010099127       18.3864440425       13.1765497757
 Si         1.0045293221        5.1220640160        2.7812175967
 Si        12.6658128555       16.2604670625        0.6320587905
 Si         3.0671276573        8.1289140262       16.1985555558
 Si        16.9815565336       11.6956947959       14.6552112583
 Si        15.5524117711       12.7580667737        1.0719271039
 Si        11.3631870267       -0.0242762678       15.3437057365
 Si         3.6165754168        3.4590150771       13.4375586757
 Si        11.2496567593        6.5927949188       16.8962599377
 Si        13.6151384641        8.8465405509       17.3084282871
 Si         1.1852529925       11.1533937625        2.6484739292
 Si         1.0573230224       16.0677269639        9.4409159470
 Se         8.0740649750        4.6828613329        9.7656087102
 Se         4.7924691542        7.0666304800        4.0048861932
 Se         5.2725754403        3.4738398664        6.2222019391
 Se        11.1618908786        6.8373549161       12.1902348106
 Se         8.5550746266        4.1352607090        2.9403219716
 Se        10.9799138141        1.2160678601        8.0910240439
 Se         4.0090230341       10.9240901172       10.6504957415
 Se         9.2120468469        7.5086773333        4.9500117061
 Se         2.6537327522        7.5280488909        8.8601912820
 Se         8.4373547338       10.7597142550       11.7684129450
 Se        12.6309446652        5.4427615251        3.0964091478
 Se        11.6698881012        5.2586572413        7.8958612025
 Se        14.3015707217        7.9273409699        9.9177498335
 Se         6.6587843281        7.2873877225       13.1038022674
 Se        13.4966015070        1.5019302810        3.9521602122
 Se        15.2720439406        3.5803107692        9.9827095589
 Se         7.1518363040       10.8354537376        4.3812178991
 Se         3.1499856110       11.7162126732        6.6412563339
 Se         6.7895946936       12.8103657940        8.5872758186
 Se        10.1477070017        8.6564067103        1.6660305711
 Se         6.2581971160        8.2565195673        8.0410516557
 Se        10.4009471039        9.6827637177        8.7391715831
 Se         6.7307133859       14.3980004638       13.0438172158
 Se        15.4066507400        8.6094791284        2.2616669878
 Se        12.7595258616        8.8743712362        5.2230624514
 Se        17.7651907648        7.3727112776       10.9225565997
 Se        12.9764510367       11.2187978107       12.6192917030
 Se        15.6630249310        5.6098751438        5.9739663132
 Se         7.9863366056       15.3783071686        6.2853954567
 Se        10.7808530960       14.0529765325        9.9823492437
 Se        10.3734494663       12.4585147661        5.6027339444
 Se        14.3479087903       12.5625573921        8.5182619085
 Se        17.0324671753        9.2579977138        6.5137361571
 Cd         6.6553134026        8.4125721548        5.4066547332
 Cd         6.3796014129        5.0100506924        4.4617976481
 Cd         6.5281078088        2.9802747380        8.5434775098
 Cd         6.1846019967        4.8332623256       11.6243591985
 Cd        11.5135335782        1.5053612178        5.6577817930
 Cd         9.9263464087        2.7939217910       10.1108361511
 Cd         0.6853256787        8.5851989674       10.2478075728
 Cd        10.2793019741        9.8204941914        5.8394905004
 Cd         3.8974135872        9.6482911846        8.0983211964
 Cd         5.3042026916        9.5553244575       12.3901366532
 Cd         9.5888218909        6.0190707647        1.6506163014
 Cd        14.3290034706        3.6953121625        4.8755853820
 Cd        11.4163127766        7.4844070089        9.6478760423
 Cd         7.1507531395       12.0191590699       13.9806629556
 Cd        15.2259049220        6.0376975065        2.4574797681
 Cd        13.2196530228        2.6162984589        8.4722690486
 Cd         5.8193829398       11.9660449224        6.3704798227
 Cd         5.3713875696       13.1142789770       11.1442790263
 Cd         9.0306817307       14.8493904436       11.6585200832
 Cd        10.5557592197        9.9560662342       -0.5325442093
 Cd        11.7189545996        6.2551070099        5.5144356460
 Cd         8.9045490656        8.1854031646       12.1288815382
 Cd        10.9395081677       11.4738292848       10.7564397756
 Cd        12.6250644152        8.2455995021        2.5284667964
 Cd        15.1843581223        8.0669886803        4.9884644145
 Cd        13.3195414586        8.5583728530       12.4099065048
 Cd        16.6419802537        8.7359074391        9.0413317082
 Cd        14.5424444964        5.6992347808        8.4658481205
 Cd         9.2868162835       14.4101584101        4.2019797789
 Cd         9.2234395013       13.3317408831        7.8208101096
 Cd        12.6523330517       13.3793084145        6.7568399695
 Cd         7.7196776258       10.2908795419        9.1477481763
 Cd        16.3569716782       11.7875701461        6.9286709426
