402
 i =     7900, time =    15800.000, E =     -5882.3856686558
  O         6.7674116281        2.3894184777       10.4997284402
  O        -5.4527665141       -2.8813185383       -7.8716755493
  O         9.2050018306       -5.0972812940        6.5800468882
  O        -7.7347551796        7.9038522021        1.4436053981
  O         1.6137585569        9.0013934422       -4.1449288010
  O         8.2252809686        7.8023995210        2.9717224103
  O        -5.9497917387        7.8581895855        3.5733732260
  O         5.1407177142        7.0292246803       -5.2644830205
  O        -7.8691058185       -4.8868100985       -0.6570802521
  O         8.6247878447       -2.6459364922        5.6748762111
  O         9.4268845790       -1.3982752548       -2.5738010758
  O        -3.2679546495       -1.5541845412       -7.9097452704
  O         8.3612080229       -0.2531820028       -6.4858011939
  O        -4.9790459685       -5.4623445936        9.4482145407
  O        -7.3006829463       -0.4717623814        9.1878973803
  O        -6.5123769381        6.4743608053       -0.5111000086
  O         0.0019759894       -6.6266064012        7.4756296012
  O        -6.2984166779        1.7893569422       -4.7371717012
  O        -1.7027278680        8.5501383496        5.8948042914
  O         8.3206608208       -4.5624016573       10.5258309806
  O        -8.0539652883       -5.7194848581        5.1970591672
  O         6.8151620903       -6.6220853781        3.7770561715
  O        -8.7487764754       -0.0403345023       -7.9464336098
  O         3.8662714593       -9.3101194868        4.9101565226
  O        -7.6544413045       -2.3044414476       -3.6184301300
  O        -8.6833276293        7.6206514793        3.7490524997
  O        -3.0806139056        7.5905768563       -7.6149952863
  O        -7.1409195725        1.7615853619       10.5356017158
  O        -5.0276650858       -6.9339537500        6.0786629295
  O        -8.7785525956       -7.3601599434        7.1793253016
  O         0.6949091313        7.5702497662       -2.0952243765
  O         3.5387969376        3.3620277031       -5.8600547691
  O        -7.1984710232       -6.9307675563        3.0101099306
  O        -3.5495178977       -6.7424089769       -8.1633384153
  O         6.6937422171       -8.3350278475       -3.4568127983
  O        -6.7600397864       -3.6934806787        9.0299062277
  O         8.8975787609        6.8374109402        8.0113866801
  O        -3.9315690696        2.7099781903       -6.0408340401
  O         5.0036717942       -4.6757620028       -3.3624634195
  O        -7.1050768281        6.5072124547       -4.9784220259
  O        -5.8629154733        4.1456300372       10.0937389529
  O        -1.8310716079       10.0201672165        8.0385623470
  O         5.7604285525        3.2191768006        6.6290287396
  O         4.8683641714        3.9669833453        8.9253336348
  O         9.5288770801        2.3705165941        9.6671642735
  O        -2.4452217558       -5.9167598790        8.6910630951
  O        -7.6568314740        8.0049437571       -7.1421635100
  O         4.8235523891        0.7806029414        9.9559071291
  O         6.2900415174        9.3053970324        9.2339172352
  O        -0.0665073093        4.1709738678       10.5509956097
  O         5.8452266114       -6.6599712121        6.3831949720
  O         4.8579590340       -6.3021796344       -5.4591588963
  O        -3.4760826650        5.1731204904       -7.3183352618
  O         2.6352882497        8.4859391061        9.4422667841
  O         8.4236742707        3.8123330492       -7.5232157448
  O         0.7216390736        5.3519100227       -6.5651715033
  O        -8.6437731364       -1.6142675803       -6.0202408462
  O         9.5308826539        2.6661512576        4.9120663519
  O        -4.7697403726       -5.0505488449       -6.3414738726
  O         4.5304763549       -7.1597700635       -2.6946902524
  O        -8.4672471506        8.9600387248       -5.0421699530
  O        -1.8651380029        9.5209793120       10.6189071762
  O        -6.4905387361        8.0093089965        8.6348082769
  O         3.2411366778       -5.7081270934       10.0619495959
  O        -7.5968045753       -1.1277827085       -1.1414325103
  O        -6.1985690148       -4.5176370890        6.7229085129
  O         0.3980376839       -6.3745878246       -5.5194813826
  O        -6.7854692121       -3.5285852559       -5.6849853398
  O         6.7033146154        1.1738679833        8.1757807707
  O        -8.7504037276        0.9990459853       -5.5159421814
  O         4.2218925708       -3.9170252134       -7.6569161470
  O        -9.7100093789       -4.0030617080        1.1853732050
  O        -8.2080140935        5.3543017913        1.0837851066
  O         4.3905922501        5.1355084338        6.4752427570
  O        -6.5242961516       -9.5282273900       -1.0172752400
  O        -6.6797215627       -8.6794967896        8.3156952636
  O         4.4503895067        7.7799274952        5.9843860295
  O         6.4540186320       -2.1492121232       -7.2375005573
  O         3.1671062176        3.7108647689       -8.4616292475
  O        -1.0888078924        5.4662836543        8.6420884921
  O         6.7838827032       -5.2938835548        8.4884612728
  O        -5.5643693940        0.7207404676        7.4375526535
  O         9.8488043372        4.5233729148       -4.3901141411
  O        -5.7130113215       -5.1800756682        4.2393883558
  O        -7.5417403996       -9.4550134013        3.2332719610
  O         7.5043263867        1.3165186996        5.7779597128
  O         9.7080286068       -2.3776682640        3.4450430295
  O        -0.5045529724        7.3017271249       -7.4197251492
  O         7.3023017500       -7.8129216502        8.0851862974
  O        -7.6661796019        5.1201212516       -2.3527726829
  O         9.3051326992       -3.8926469544       -1.3165601672
  O         6.0027891810        6.8981088540       -2.7999792226
  O         9.2078014016       -5.5301574991       -6.5138689539
  O         5.9450869008       -3.1924065171        9.8161042757
  O         5.9849498785       -9.6340458221        6.6842193769
  O         8.8672376059        4.1813770929        0.8003858823
  O         8.3507658739       -3.1839828984        8.3516394876
  O        -4.7562931773       -1.1805093956        9.3781030377
  O         6.2875156807        2.9651834448       -6.1382412785
  O         6.5636995651        9.5505271116        1.7530183440
  O        -6.1834440609        9.6770992853       10.7323001132
  O         1.7997087197        8.0660318316       -6.4150837966
  O        -7.5074790646       -6.3690148670        9.2064155265
  O         7.2568080967       -1.4449486885        3.7674969134
  O         4.1567291624       -6.5441513317        4.3865515449
  O        -7.1315330936        5.6966748675        7.5961067570
  O        -8.2717506659        2.7862947740        0.2585301183
  O         4.8886413582       -7.2023750918        8.8264859237
  O         9.3745773807       -6.2827413466       -0.0819785547
  O         9.0952943196       -7.2117386237        4.9168663656
  O         6.8601508588       -6.0236002534       -2.1140657423
  O         7.3242027690       -3.2264989793       -2.6048733899
  O        -0.2714377655       -8.7265699415        5.8375439624
  O         9.7632468394        6.7475740520       -5.9880002799
  O         7.1839113521       -0.2005421426       10.4752532344
  O         0.6496137393       -9.4568233899       10.5241018217
  O        -2.3550061173       -6.1803244201       -5.9707646929
  O        -1.6414015614        9.2061127850       -6.1392926370
  O        -3.7195140463        5.2608798924        9.2331580139
  O        -7.3902474330       -5.5740807237       -3.2012888079
  O         7.6330349347        6.0169109287       -4.5950846047
  O         2.9736412942       -8.3659177876       10.0489123242
  O        -0.9688712165       -8.0285769735       -7.1369219140
  O         6.7674182939        9.0556030570       -5.1368770000
  O         6.1381507621        8.9661432397        4.2833778708
  O        -0.8540645972       -7.3597967335        9.8061221386
  O        -8.4755316237        8.0752718132        7.0340364634
  O        -0.9265444540       -2.6672771275       10.6378529716
  O        -8.3673387155       -8.0722808585        0.5329911409
  O        -5.5202888334        4.3624017814       -4.8223807432
  O         8.2337824785        3.1009081747        7.6114689484
  O        -5.3057579104        6.1797975887       -2.9686369993
  O        -0.1677076442       -4.7246728645        9.2757669354
  O         8.5073583282       -9.0086829375        0.2875575457
  O         6.4095921569        8.5449787907       -0.6021023849
  O        -5.8712520452       10.0754077115       -3.6076766302
  O         8.7118770157        7.5730624700        5.5680426724
  O        -3.7358043344        7.3405577291        4.8548078513
  O        -3.9416606678        2.0634057170        5.7924761302
  O        -5.5179922992        9.2842318779       -6.2277072154
  O         8.8829542591       -8.6605874192       -4.9544188172
  O         7.2911344611        6.9664075525       10.1264170569
  O         2.1443378096       -8.4361783744       -5.7768272415
  O        -6.9327181998        8.0211092926       -2.6636917156
  O        -5.9442650962       -0.3250961138       -7.8918014033
  O         2.1032607996       -7.5482060215        5.8232814888
  O         6.6921436110       -5.6720614263       -7.3486643584
  O        -8.2975695912        2.7071819467       -3.2908405641
  O        -5.0090581249       -8.2916847702        3.7450091765
  O         9.0586430615       -5.1113585851        3.4157634559
  O         4.1209294276        9.1899945227       -5.6596535654
  O        -7.9955285105       -7.7917665119       -5.2091971817
  O         3.1711321660        1.2054630069       -7.4664753892
  O         6.7333773380        5.4884986266        7.8696022283
  O         5.6054731225        0.3335793773       -6.9333836066
  O         2.5257429737       -5.8463318610       -6.8001667609
  O        10.5069987850        9.3694431095       -2.3022339436
  O        -8.9159199857        3.5357930248        2.8010306358
  O         4.7553391540       -7.3444687051       11.5467107455
  O        -6.4891216432        3.3000389498       -6.8909986704
  O         6.0377032687        8.4375714561       -7.5403759121
  O        -9.1318816799       -8.5491826360        9.5404808748
  O         4.0672283717       -1.3764643073       11.1903878583
  O        -7.8319377755       -4.3006390707        2.9330300310
  O        -3.5444305854        9.4915943258       -4.4424232640
  O         3.8749101353        6.2208633719        9.9942239114
  O        -6.2575772737       -1.8579268913        7.2310006391
  O        -5.1660591827        9.6018089302        5.6852002500
  O         7.4222249572        5.9439330863       -0.7390883855
  O        -6.2594778136        3.2729887366        6.5585251364
  O         0.0476186265        7.0676179263       -4.7288606019
  O         5.8002485746        4.6361861336       -8.1149550382
  O         5.3513115963        4.5686693347       -4.2357476129
  O         9.2514305677        4.1903308439       -1.9215443288
  O        -2.7350762715        6.2569983881        6.8799655865
  O        -1.3560413431       -8.1229488596       -4.5776383171
  O         1.0993844498       -2.3842105802        8.9023259092
  O         1.5541050779       -3.9087022733       11.0705101416
  O         8.3933930018        9.3407583527       10.7941778687
  O        -1.4045925536        3.5670013054       -6.6877328933
  O        -9.1042243723       -8.9956135361       -7.2479059667
  O        -2.8997838767       -8.3949352515        5.6499896938
  O        -7.7974117146        0.2232458787       -3.1612329764
  O         9.2056837494        5.4812608079        4.1524599683
  O        -4.2441825325        9.6628356399        9.0224726840
  O        -3.3254127008        3.1126278318       -8.7144305722
  O        -1.2337406084        6.2951424948        4.6440426659
  O         1.1749554507        2.8197570742       -6.8910367259
  O         8.6404187467        9.4130653426        7.6503466365
  O        -3.0290079803       -4.1752941647       10.8047687936
  O         1.1111711897        6.3807871047        9.6241789346
  O        -6.8986289117       -5.0136411475       -8.0372410834
  O        -8.6363519941       -3.0057006522        7.2029326343
  O        -6.1435102333        7.1872116848        6.0167496229
  O        -3.6905715751       -4.5861656887        5.8872698368
  O        -4.3675242904        2.8997212587        8.2910309128
  O        -8.4617190931        4.1131701531       11.0698323259
  O         7.4502688236       -5.0894275199       -4.5114238772
  O         8.5139271665       -7.2598961016       10.9807235680
  O         8.7140487036        4.9123783067        9.6895977719
  O        -5.8714458155       -8.5421035200        1.2336556003
  O        -8.5313263974        3.6142175616        7.7800940847
  O         6.2086382352       -8.2876630642       -0.7339535970
  O         6.6796316313       -8.0398319453       -6.1754056743
  O         8.9738365774       -7.5518074558        2.3123727376
  O         2.5446486245        6.2545877817        4.8966453188
  O        -9.7028113584       -6.3230096218       -3.9997669472
  O        -6.2160829364       -6.8883779636       -0.7539097028
  O         9.9014468733        6.8517149208       -3.4863294861
  O        -9.5043538162        1.1930225943        7.0922269934
  O         2.6789534227       -6.1925321060       -4.1253393895
  O        -9.4215093026       -3.8412237748       -4.8397409630
  O         9.4857658840       -0.2160414511        4.7964155603
  O        -5.4424591765        7.1843588593       -7.8846438055
  O        -2.4337203869        7.6463861534        9.0780471226
  O        10.3649243149        7.0415067265       -0.9420409935
  O         1.2751853415       -8.8122325867        8.0709084235
  O        -7.8811605108       -8.0753719070       -2.6823731128
  O        -8.1221782898        4.5847062533        5.2771553302
  O        -1.1173097841        9.0143578621       -3.5149858909
  O        -4.5796659020       -7.6517403315       -5.6170068377
  O        -4.4892616626        6.6093817697       -5.4442050682
  O         8.1796042940        8.1773996879       -2.0797035819
  O         2.6878310429        6.7597283274        7.5901115384
 Si         3.1337004589       -7.8369373412        4.5923521369
 Si        -6.5716544762       -5.1572184605        9.7195437920
 Si        -4.1819356610        6.5689419958       -7.0517410809
 Si         6.3974916220        1.0511102686        9.7469581322
 Si        -9.4251438996       -4.8398796452       -0.1749806812
 Si        -9.3511783414       -6.3719445854        5.9859761634
 Si         9.1997249970        7.1729320767        4.1217771147
 Si        -8.2020066243        7.4578526427       -5.7392371118
 Si         4.0141793494       -7.1377136874       10.1501675009
 Si        -3.0439791537        3.5394365000       -7.1948867953
 Si        -8.9827545411       -8.9875461502       -5.6067305887
 Si         6.0081786002        6.1052187181       -4.2119833999
 Si         3.4660928857        6.4643235579        6.2051251618
 Si        -7.2867098216        0.1498129807       10.7334996032
 Si         8.2738407751       -5.7200399757       -7.7656143178
 Si         6.1246462494       -6.6305228101        7.8916530417
 Si        -7.2225571300        9.6380808397       -2.5228953866
 Si        -5.1145023157       -5.2883426378        5.7632097612
 Si         4.4105086250        4.6236842961       10.2804427873
 Si        -4.8277760673       -1.4485897844       10.9956102740
 Si        -7.1175188874        7.2966108721        7.3301612160
 Si         2.5010045447        9.3225779816       -5.4893257323
 Si        -5.6323216300        5.9058860688       -4.5467844655
 Si         5.1501216617       -2.6981990672       -8.2189940844
 Si         7.0848985695       -9.4249522700        7.9146509438
 Si        -7.2041957307       -5.5536464122        3.7951179770
 Si         5.0607554642        3.2037500914       -5.1156282649
 Si        -1.7246067020        8.3058831267       -7.3987689668
 Si        -8.1748138597       -2.8498499831       -5.0715464822
 Si         5.4494409314        4.5533895121        7.5079614003
 Si         4.2608698770       -6.1386812087       -3.9469344927
 Si         6.9918355955        2.2398356350        6.9870138052
 Si        -8.8641967985        4.1932348124       -2.9356055527
 Si         9.1976091070       -3.5274861249        6.9681790857
 Si        -6.7461301311       -5.5826200970       -1.6767320386
 Si        -2.2805694938       -2.8725781628       -7.8759845128
 Si        -6.6703369410        6.4786979404       -2.1403545710
 Si         9.4721228623        3.7594869539       10.5446933457
 Si        -8.0414138056       -7.7540009340        8.5647670982
 Si        -2.7039039233        9.2162501197        9.1505829622
 Si         0.4356548621       -3.3680797870        9.9542757289
 Si         8.6869472792       -1.6237458585        4.4491228572
 Si        -5.0318761772        2.2753544956        6.9368361442
 Si        -6.8655493546       -8.2802493026       -0.0909629828
 Si         2.8895634667       -4.8119065357       -7.9935525502
 Si        -5.9423842862        9.4986017555        9.1380062176
 Si        -8.2886376554       -1.2237528822       -2.5589653887
 Si         5.5807973787        8.4542495734       -5.9853621839
 Si        -8.2291363633       -6.9568525906       -3.7640429773
 Si        -7.4595325154        8.3326714923        2.9993301466
 Si        -5.1787456387        8.0631570740        5.0499443145
 Si         0.3156295320        8.1501590937       -3.5327068281
 Si         6.0581471999       -7.5336190125       -2.2002880217
 Si         7.8537034616        6.0539153218        8.9407894764
 Si         9.0116434345       -5.1412602152       -4.9528649275
 Si         7.3094208367       -4.0043165945        9.3299640352
 Si        -2.0064350207        9.8088724859       -4.6160902060
 Si        -4.5938961125       -8.2779278637        5.3417134194
 Si        -0.6487016281       -8.5776149972       10.7891588427
 Si        -6.9863530491        3.3479767756       -8.4228623468
 Si         1.9594984862       -6.7835661308       -5.5471033455
 Si        -6.2114637786        8.5698149958       -7.5029197614
 Si         9.2107453960        5.9834234535       -4.6441381412
 Si        -7.4507944307        4.3414497914        6.7351584470
 Si        -0.8356661252       -6.0904975800        8.7747590035
 Si         9.1446700389        1.2267210609        5.5884505631
 Si         9.4198701352       -7.7497144133        0.7648555282
 Si        -5.0130000898       10.2079633649       -4.9660268797
 Si         0.3405148291        4.9958935720        9.2675096479
 Si        -2.5339260672        6.1220500028        8.4993923309
 Si         6.8295457029        3.4926168195       -7.6133982592
 Si         5.7882440772       -6.8470872396       -6.6803485287
 Si         2.7626371118        2.7880034815       -7.1752868437
 Si        -0.9919918206       -7.0860207073       -5.7624868643
 Si        -5.5471104557        2.9562531900       -5.6208818368
 Si         6.9469401269        7.3109477503       -1.5028675355
 Si         8.4428494430       -6.5785764973        3.5515867749
 Si         6.9634722817        8.5726693714       10.5077935907
 Si        -6.0104028544       -4.1326057356       -6.9808778325
 Si        -9.3828790603       -0.2337059278       -6.4363663858
 Si         0.8138778058       -7.9445292239        6.7897635590
 Si         8.5347024629       -2.5097003229       -1.6647856333
 Si        -4.3612605649        3.7621806392        9.6190814752
 Si         4.3423071587        0.2215384452       -7.9834554785
 Si         0.5816911668        6.9846746894       -6.2132790995
 Si        -7.0113019235       -3.2944498485        7.4503364294
 Si        -2.2945498209        7.0590889318        5.5283441884
 Si         5.0828325676        9.1524208545        5.4815173349
 Si        -3.9031190808       -6.4855777596       -6.4787382227
 Si         7.3347824677       -8.8414336111       -4.8410135091
 Si         1.9288470832        9.9911016436        9.4587092440
 Si         6.9519353774        9.8963232345        0.1432154107
 Si         6.9808499880       -0.5658525153       -7.2901113872
 Si         0.1054789973        4.0632726830       -7.1724063132
 Si        -9.4054756758       -3.8662116674        2.7644974912
 Si        -3.4480347038       -5.5571238442       10.0109226177
 Si        -7.8708101711        1.4598236124       -4.1799959226
 Si        -7.8625536047        6.7354046891        0.3367551932
 Si        -6.3887879721       -8.3327940787        2.7879126071
 Si         6.5906763371        8.2541930331        2.8759652067
 Si        -1.7671041583       10.0298182587        6.3467061697
 Si         8.1704171239        4.4575902939       -0.6880119320
 Si         5.6499123575       -6.0833361378        4.8288080547
 Si         9.3756726880       -8.6684561424       10.8500707484
 Si        -9.7057631703        2.5437422971        8.0227989716
 Si        -9.3358277280        4.0531246357        4.2705150897
 Si        -5.9160247629       -0.6740673404        8.2536617087
 Si         9.3353913969        8.0347860128        7.0420132846
 Si         6.6937616982       -4.6945074774       -3.0756008183
 Si         9.7413667056        7.9216991065       -2.1869118516
 Si        -8.9164941989        3.8871810759        1.1664003573
 Si         2.5979276142        6.9124972946        9.2265162415
 Se        -2.4861384452       -1.3467881460        3.8721506592
 Se        -1.7989230544       -3.2910492863       -5.6626625929
 Se        -4.7998493939       -4.3630532651       -1.6236033359
 Se        -1.7881402966       -5.4090713886        2.1209673169
 Se         1.2311269267       -4.7357010658       -1.1109111937
 Se         1.6917072734       -7.6975237603        2.7071276427
 Se        -6.0681261992       -1.0338342567        2.0136060555
 Se        -4.0937068497       -0.4959790391       -4.5086635030
 Se        -4.5732117382        1.5590798042       -0.0778722835
 Se        -1.6507078561       -0.1647098094        8.3083695507
 Se         3.6158744490       -0.3858555073       -0.8174434928
 Se        -2.5440714235       -1.8937907592       -0.5635829459
 Se         0.9994546456       -1.4868813273        1.2435178431
 Se         0.6740900565       -3.9531137596        5.6288049682
 Se         4.9899517567       -4.5373887874        0.5363062982
 Se         5.7994914065       -3.8686863835        5.0194867044
 Se        -2.0620382310        5.0425048589       -2.2225934002
 Se        -3.9805808246        5.0783011377        2.2718273070
 Se        -0.6480684443        2.7000363909        4.6815321142
 Se         0.0734931531        0.9756502391       -3.2088832343
 Se        -0.8764120098        2.2733695781        0.6835915787
 Se         0.8890417962        5.3972829736        1.9124067709
 Se         1.3836132483        3.7907721626        7.7298317730
 Se         4.9957168672        1.1715069849       -3.9944887187
 Se         3.5792769278        2.3485808842        2.6403885086
 Se         1.8625040133        0.2342187820        5.3784257045
 Se         3.7769815893       -0.7908184884        6.3757504956
 Se         7.6763380205       -1.2422131578       -0.0078893971
 Se        -1.9061365931        8.6113683631        1.0839916899
 Se         3.0089401304        8.7870866379        0.7290907105
 Se         2.7795920406        4.4661841134       -1.6728683455
 Se         5.4359767303        6.3475915947        2.2702579413
 Se         6.2285920502        3.1198880090       -1.2605828746
 Cd        -6.0972146968       -2.5292975213       -0.2183371162
 Cd        -4.1241472294       -3.1554077183       -3.9565756514
 Cd        -2.6752762437       -3.9636623606        4.0749752430
 Cd        -2.9838420188        0.0959438857        6.0307826444
 Cd         3.3825080961       -3.0375502456       -0.7190649879
 Cd        -0.5665647544       -3.4589865190        0.5503445207
 Cd        -7.0699923257        1.0131937430        0.7371321924
 Cd         1.0697416391        2.5859445139        2.1764741507
 Cd        -3.6230312193       -0.5218846235        1.3803124737
 Cd        -0.4291430556        1.8449338448        7.1673906879
 Cd        -1.3396111634       -0.7944498608       -4.6765294688
 Cd         5.2834973579       -0.6563813170        4.1437219075
 Cd         0.1879268837       -5.8061855230        3.7004812615
 Cd         3.1827385732       -3.5347480723        5.3232606072
 Cd         3.5457261638       -0.1911997817        1.8243202017
 Cd         2.6980466630       -5.7187023786        0.8329075900
 Cd        -1.5567137606        7.0842704643       -0.8563497445
 Cd        -3.1619271932        4.0816020240       -0.0140735620
 Cd        -3.2274209931        3.4095758338        4.0915765117
 Cd        -4.1296786749        0.4696987222       -2.2323610117
 Cd         0.2293510581        4.0741465301       -1.1492256227
 Cd        -0.6849438330       -0.0374178050       -0.5821473600
 Cd         0.2573182923       -1.6210559435        7.1883083291
 Cd         2.6918370894        0.9411361513       -2.8975530470
 Cd         6.2357348468        0.3661768373       -1.5089692014
 Cd         0.6424016180        5.0465839096        5.1636474860
 Cd         5.9834843664       -2.4270852700        1.8592974250
 Cd         0.4691394949       -1.4332387271        3.8200245217
 Cd         2.3590276347        6.8541856753       -0.9282945326
 Cd         0.5096919796        9.2698686505        0.9760708270
 Cd         2.9186572353        6.8025505938        2.8591376183
 Cd        -1.4613979215        6.2300293983        2.4536293628
 Cd         4.0410592073        3.3264025215        0.3135274312
