402
 i =     8900, time =    17800.000, E =     -5882.3901487725
  O         6.8709615065        2.5531278069       10.4035700605
  O        -5.3203454006       -2.6261359113       -7.8517543023
  O         9.1613965664       -4.6689559117        6.1612934866
  O        -7.5196574719        8.4195534147        1.0212751191
  O         1.5082073714        9.5488285108       -4.2415477292
  O         8.1953436936        8.1865468589        2.7522358788
  O        -5.9936170367        8.3835751893        3.2521263655
  O         5.2612293696        7.2443865808       -5.5306405209
  O        -7.9940240638       -4.4724613562       -1.0521634357
  O         8.5638616908       -2.0243152502        5.5461073675
  O         9.4061163518       -1.2368847510       -2.8308069516
  O        -3.2413279933       -1.2629889567       -8.1916655602
  O         8.4257967995       -0.0845922306       -6.8002052808
  O        -4.9363703284       -4.9067224459        9.3595920514
  O        -7.1755884882       -0.1919112309        8.9688068117
  O        -6.4518012675        6.9331751831       -0.7887240622
  O        -0.0324516119       -6.3688274416        7.5397644557
  O        -6.3804907309        2.0960109256       -5.0455745184
  O        -1.6307952064        8.9283659281        5.8740096809
  O         8.3673979956       -4.2723133817       10.3261946086
  O        -8.1483696280       -5.4641629372        4.8665616071
  O         6.7463451810       -6.2556266687        3.6352563417
  O        -8.5700630451        0.3684666902       -8.0542261023
  O         3.8817529890       -8.7377078303        4.9838531909
  O        -7.5329960696       -1.9770364353       -3.6143809348
  O        -8.6091451466        7.9661829648        3.3993073718
  O        -2.6611581839        7.4792126488       -7.9362762467
  O        -6.9447013174        2.1346534883       10.2674831191
  O        -5.1438611705       -6.7009531611        5.7440956630
  O        -8.8536935118       -6.8180993747        7.0478563781
  O         0.4733614819        7.8436557031       -2.2627857109
  O         3.5675263626        3.6729982049       -6.0168943879
  O        -7.2169385851       -6.4050788154        2.5947872865
  O        -3.6851685721       -6.3140434505       -8.1221098188
  O         6.9127404260       -7.9976938355       -3.5831204228
  O        -7.1382324568       -3.5576612016        8.7541391223
  O         8.6756909278        7.3176968039        7.5514650796
  O        -4.0791244028        2.9791517034       -6.3493323349
  O         5.0305932819       -4.2999934757       -3.8772569150
  O        -6.9811910168        6.7941131739       -5.4128955881
  O        -5.6908593617        4.2275967829        9.8580039417
  O        -2.0642086003       10.6932129543        7.8063576258
  O         5.8406269472        3.6719063233        6.3912772008
  O         4.4634995699        4.4135964006        8.4976446762
  O         9.5438300946        2.6907782330        9.3838206266
  O        -2.3575455597       -5.7664871443        8.9543363603
  O        -7.6040291419        8.0353158806       -7.6309829239
  O         4.8018560941        0.9556777379        9.6963678316
  O         6.3758582514        9.3722477240        8.8547031899
  O        -0.3202485217        4.4863892970       10.2780681361
  O         6.0483855452       -6.1242568542        6.2767947938
  O         4.9835244262       -6.2695449376       -5.6010658425
  O        -3.7923875736        5.3232681285       -7.5138610341
  O         2.6772997115        8.8950224566        9.4570598242
  O         8.3989291134        4.2263324797       -7.8835770197
  O         0.5648898008        5.8474491939       -6.8868096015
  O        -8.6035987450       -1.1593052327       -5.9392850850
  O         9.6366449269        3.1381331956        4.6426990923
  O        -4.7603463081       -4.7409907857       -6.2529393161
  O         4.6484370943       -6.8833856894       -3.0349172021
  O        -8.2900517605        9.2178594511       -5.4730271034
  O        -1.9817714237       10.0706866942       10.4802487940
  O        -6.0961985543        8.2953970782        8.2475748465
  O         3.1272507488       -5.2029270697        9.8631381708
  O        -7.9755496113       -0.8601672044       -1.1333809019
  O        -6.3900913718       -4.1895516140        6.3952127804
  O         0.3877147236       -6.3532616989       -5.4717753315
  O        -7.0347155696       -3.2811741219       -5.8488881601
  O         6.6082315453        1.4776354844        7.9166763405
  O        -8.8403795135        1.4268888627       -5.7651361613
  O         4.2249837395       -3.5582472875       -7.6536622448
  O        -9.6214982040       -3.5528136635        0.8794163329
  O        -8.1782942726        5.7684451035        0.7312860774
  O         4.5037033759        5.7874234421        6.1213654995
  O        -6.6323581047       -9.1025662290       -1.3435054568
  O        -6.9467431013       -8.5549985437        8.0650538630
  O         4.4817055027        8.2429164342        5.4771500667
  O         6.4587235975       -1.7957869268       -7.4460067688
  O         3.3720296860        4.0013170089       -8.6633256873
  O        -1.1523201747        6.5037259869        8.8422357702
  O         6.6949072640       -5.0470169339        8.4852489381
  O        -5.4448577476        1.0166542304        7.2858606376
  O         9.7444808280        4.6750774097       -4.6519678586
  O        -5.7309450370       -4.7505072411        4.0375786863
  O        -7.4326179645       -8.9558704883        2.8876974933
  O         7.5347211104        1.8259262857        5.3891038639
  O         9.5556635674       -2.2184426840        3.1131211582
  O        -0.3520721236        8.3213037924       -7.5142869410
  O         7.1710905968       -7.5171945553        8.0804283842
  O        -7.5376074593        5.4463334552       -2.7612662195
  O         8.9201306152       -3.6558751366       -1.5069779727
  O         5.8633815699        7.1224021461       -2.9076116703
  O         9.2748575786       -5.2075533596       -6.6417039449
  O         6.0030892636       -2.9023482582        9.7431851044
  O         6.0971285256       -9.2366323160        6.3969342677
  O         8.8649554816        4.5486869275        0.6090712809
  O         8.2775979768       -3.0102971621        8.0131301998
  O        -4.8296184660       -1.1377076756        9.1421934834
  O         6.3072661920        3.5558158907       -6.4928774294
  O         6.3911955926       10.0361895462        1.4074497615
  O        -6.2531591871        9.8693674180       10.4838364316
  O         2.0230061933        8.4423229339       -6.6216148813
  O        -7.3093028081       -6.1088097562        9.1530037187
  O         7.2935768942       -0.6533517000        3.3571571093
  O         4.1084526364       -6.1521439688        4.5620502190
  O        -7.1941715240        5.9732276802        7.4529211338
  O        -8.3203396644        3.1024857738        0.0614669788
  O         4.7359655401       -6.8662021054        8.5162428886
  O         9.1215027858       -5.8305070237       -0.1765835658
  O         9.1664967028       -6.9542915642        4.6858153955
  O         6.8381926433       -5.6007106008       -2.4894995888
  O         7.1549279658       -2.8090435942       -2.9024095966
  O        -0.3738515903       -8.1053758706        5.7800601899
  O         9.7899652155        6.8506388666       -6.3032982141
  O         7.3211068193        0.0385512646       10.1569649795
  O         0.5793020416       -9.1876674066       10.2896982118
  O        -2.3171519106       -5.8905857836       -6.0249099270
  O        -2.5623509753        9.5229711931       -6.2878352898
  O        -3.5238284663        5.5304197156        9.0558932963
  O        -7.1704037138       -5.3883794405       -3.5846176445
  O         7.6131903037        6.4170474154       -4.7521048301
  O         2.7856842594       -7.9246453028        9.8047022960
  O        -0.7858768165       -7.9463418997       -7.0764156277
  O         6.7242316214        9.3863288570       -5.3321328618
  O         6.0423915030        9.4825988569        3.8591603532
  O        -0.2224606592       -6.8084279763       10.0079209442
  O        -8.5200966249        8.2848205988        6.8245589009
  O        -0.7809937277       -2.0760837421       10.4189049680
  O        -8.5400568071       -7.9106790608        0.1398806381
  O        -5.6146136025        4.6585810264       -4.9849933967
  O         8.2185204478        3.4864660166        7.2966783750
  O        -5.2694237214        6.5869857341       -3.2632910691
  O        -0.0975952365       -4.2929344441        9.2053097417
  O         8.3301994221       -8.4791956250       -0.2855245556
  O         6.2844189053        8.9200774260       -0.8973368126
  O        -6.2213786996       10.4769529184       -3.9878172179
  O         8.8687113877        8.4472475826        5.2203224845
  O        -3.7510453505        7.8236521074        4.6054430024
  O        -3.8534751644        2.3789261928        5.5828017622
  O        -5.6119344651        9.6495405439       -6.4108915522
  O         8.9822602874       -8.5483590477       -5.1637830636
  O         7.4045580449        7.3482359908        9.9391373857
  O         2.1683090683       -8.0531548315       -6.0758331821
  O        -7.0884586256        8.3482014253       -2.9701452140
  O        -5.8488129293       -0.0603771584       -8.1670819289
  O         2.0462882239       -6.9745434665        5.9592687236
  O         6.5665325159       -5.2972379029       -7.6206847086
  O        -8.2365730715        2.9843406643       -3.4467886471
  O        -4.9795620602       -7.7401910107        3.3140781457
  O         8.9748965923       -4.7958500100        3.2043364046
  O         4.0816878175        9.5753579492       -5.7421958344
  O        -8.0451627792       -7.4571033968       -5.4105795893
  O         3.2100079666        1.5642036269       -7.5783332071
  O         6.4732772934        5.7821018181        7.9742112607
  O         5.7515793019        0.5805399398       -7.2059440400
  O         2.3570320540       -5.3889109826       -7.0375875327
  O        10.3760152283        9.6986540648       -2.5798400626
  O        -8.6603034684        4.1214066439        2.5232060429
  O         4.6111407994       -6.9996769516       11.2937879230
  O        -6.5679317056        3.6414032678       -7.0916519156
  O         5.8299756149        8.7464448177       -7.7954119214
  O        -9.1513475746       -8.0500362849        9.3115284611
  O         4.1132895768       -1.0662463920       11.1663705804
  O        -7.8824270662       -3.9154157045        2.7082368330
  O        -3.7586577234        9.9706260772       -4.1267346878
  O         3.8475602269        6.5418473776        9.8968462078
  O        -6.2205616508       -1.6215207544        7.0588764984
  O        -5.1550232574        9.9636183445        5.3542040721
  O         7.4470760014        6.2226780056       -1.1524692677
  O        -6.0875777877        3.5321439075        6.5104885935
  O         0.2695698422        7.2810582039       -4.9014847154
  O         5.8135131109        4.9702186333       -8.6624589766
  O         5.2938473037        4.9090070529       -4.5046347505
  O         9.3844263409        4.5861765693       -2.0484808746
  O        -2.6726199869        6.5693566346        6.6661144300
  O        -1.4709750043       -7.9975063218       -4.6071724593
  O         1.3467192894       -2.0354017669        8.6620202325
  O         1.7249801495       -3.3075744829       10.9033856294
  O         8.1646714577        9.9246793356       10.6301935295
  O        -1.4984199416        3.9842673316       -6.8057180630
  O        -9.0764561866       -8.6155678850       -7.5016565939
  O        -2.9419072489       -8.0560372757        5.2326894370
  O        -7.9573722804        0.4516798229       -3.5505534715
  O         9.3154765625        5.8763198351        4.0906128765
  O        -4.4093314944       10.4000545385        8.7232429998
  O        -3.0776341234        3.2823829715       -8.8376651978
  O        -1.2446327010        6.8563418962        4.3640387206
  O         1.1074392355        3.3151642053       -7.2936739751
  O         8.6643339903        9.9265920274        7.3378337903
  O        -2.7758290131       -3.8582560247       10.5807843967
  O         1.3658481081        6.5447307128        9.6065586312
  O        -6.8220013794       -4.7108616746       -8.1312362318
  O        -8.6409044368       -2.5764346635        6.7252457738
  O        -6.0892674192        7.5499046903        5.7291388688
  O        -3.6594269811       -4.3076338783        5.7180852768
  O        -4.0490469975        3.0740267908        8.1398715395
  O        -8.4202975908        4.4438147878       10.5866549372
  O         7.5104056567       -4.6656277162       -4.8725468469
  O         8.4174018161       -6.9604427132       10.9987124994
  O         8.8520109285        5.3147024520        9.1722485271
  O        -6.0063718340       -7.9842541267        0.9043109270
  O        -8.4622478826        3.7874524446        7.5309711744
  O         5.9070744496       -7.9576861631       -1.0199840878
  O         6.7798382905       -7.6950475970       -6.3736442972
  O         8.6903305998       -7.2045734218        1.9865520029
  O         2.3192269664        6.8451490502        4.8420690400
  O        -9.7513317894       -5.9205440122       -4.0357652569
  O        -6.5388526165       -6.4991948411       -1.1307835007
  O         9.9865306501        7.1996065985       -3.7378370012
  O        -9.5978686282        1.5507344848        6.7392848513
  O         2.7355193619       -5.8074287051       -4.4651105865
  O        -9.4522757893       -3.3548490916       -4.8184135835
  O         9.4912407406        0.3080842128        4.4251425551
  O        -5.2550433483        7.4771959805       -7.9359517747
  O        -2.9002376252        8.2674369500        8.6679359528
  O        10.2576322844        7.4712141503       -0.9774272188
  O         1.2523306010       -8.8975050565        7.7743113824
  O        -8.1527020283       -7.6875747987       -2.8868793895
  O        -7.8907052967        4.8619349132        5.0720088174
  O        -1.2060369217        9.0625372052       -3.7965729920
  O        -4.5027070176       -7.4843070899       -5.8008922203
  O        -4.2012618277        6.9801659502       -5.5674814022
  O         8.2106258694        8.4436586277       -2.4824008957
  O         2.7495575179        7.2593332849        7.4570790784
 Si         3.0548648006       -7.3678575097        4.7524312073
 Si        -6.5543591825       -4.8042341227        9.6722722303
 Si        -4.0235249475        6.8569768839       -7.1724323190
 Si         6.4216971341        1.2789505581        9.4712581798
 Si        -9.5611021842       -4.4930897116       -0.5499299663
 Si        -9.3956846186       -6.0145239241        5.7158013988
 Si         9.2533166466        7.5821661340        3.8741783098
 Si        -8.1533522633        7.7438940906       -6.1519830841
 Si         3.8658680600       -6.7236086515        9.8872841890
 Si        -3.0518554806        3.8401941695       -7.2990469444
 Si        -8.9893506793       -8.7023664978       -5.8910803383
 Si         6.0421953768        6.3777895701       -4.3769618098
 Si         3.4578972529        7.0207102543        5.9826325793
 Si        -7.1916349281        0.5642289465       10.4425357326
 Si         8.1996184267       -5.4054220860       -7.9162949801
 Si         6.1408081736       -6.3833088416        7.8578625807
 Si        -7.3762223104       10.1076580066       -2.7636087657
 Si        -5.1126762244       -4.9767979018        5.6091449682
 Si         4.4104667561        4.9767247264        9.9848322372
 Si        -4.8278103987       -1.2413821572       10.7449892283
 Si        -7.0303320862        7.5551975020        7.0672062234
 Si         2.4378839545        9.7430196000       -5.6351298865
 Si        -5.5493616552        6.2499768247       -4.8187267830
 Si         5.1821588138       -2.3897162816       -8.3024400149
 Si         7.0680291039       -9.1097237100        7.6887005170
 Si        -7.2389997206       -5.1209562450        3.6121018230
 Si         5.1641243214        3.5497945018       -5.3352626447
 Si        -1.8911325951        8.7971509348       -7.5832312178
 Si        -8.1786878866       -2.4678305569       -5.0693689483
 Si         5.3054145265        4.9788309191        7.2441227854
 Si         4.3324382037       -5.7639699199       -4.2038395084
 Si         6.9926534823        2.5955227033        6.7314515175
 Si        -8.7340690224        4.4915132592       -3.1852318469
 Si         9.1699582245       -3.0701874107        6.5800142186
 Si        -6.8210933200       -5.1679437191       -1.9515339025
 Si        -2.0670810563       -2.4477421728       -8.1239649932
 Si        -6.6046348103        6.9290028182       -2.3938849958
 Si         9.4073830134        4.1220911284       10.1263321663
 Si        -8.0792563929       -7.3623278233        8.3707446683
 Si        -2.9199759624        9.8179627971        8.8171616706
 Si         0.6149475307       -2.8650428031        9.7724765659
 Si         8.6692669161       -1.1593960157        4.1464394403
 Si        -4.9053249397        2.4841668261        6.8007127907
 Si        -7.0150624727       -7.8481249374       -0.3619152895
 Si         2.8738769268       -4.3213289880       -8.1886455581
 Si        -6.0276055061        9.8189790541        8.8380660600
 Si        -8.3795391463       -0.8962851078       -2.6547469690
 Si         5.4772261931        8.7530205216       -6.1432971699
 Si        -8.2214798582       -6.6071522823       -4.0287154021
 Si        -7.4095882479        8.6953224364        2.6130665855
 Si        -5.1866380751        8.4199616092        4.7097087012
 Si         0.3537006327        8.4634055260       -3.6716217363
 Si         6.1910288272       -7.1133961424       -2.4470225670
 Si         7.7977676350        6.4331294452        8.6356001550
 Si         9.1261933783       -4.7486335278       -5.0896034064
 Si         7.3341189980       -3.7216710097        9.1275178749
 Si        -2.2372572158        9.9503663038       -4.6434244903
 Si        -4.5612593151       -7.9558098928        4.8734478949
 Si        -0.6246905997       -8.1676367452       10.7162201149
 Si        -6.9428345453        3.7196853572       -8.6604918645
 Si         1.9801377771       -6.4067354837       -5.8051663758
 Si        -6.1905767051        8.8115746655       -7.7301679008
 Si         9.2306046807        6.2695729145       -4.8675281512
 Si        -7.3751243913        4.5659033091        6.5983319613
 Si        -0.6642002361       -5.7088590463        8.8627630620
 Si         9.1574405474        1.6925380502        5.2180864613
 Si         9.2800520001       -7.3841213984        0.4096906734
 Si        -5.0336934002       10.4701048753       -5.0694041934
 Si         0.1602032884        5.5486737733        9.0834723553
 Si        -2.6322952456        6.6876515356        8.3074588319
 Si         6.8154852991        3.8410521928       -7.9618368287
 Si         5.7350255766       -6.5469996102       -7.0179046386
 Si         2.7725601257        3.1687341293       -7.3551219855
 Si        -1.0744931389       -6.9827701660       -5.7906625219
 Si        -5.6704134631        3.3051427475       -5.8496884940
 Si         6.9502084976        7.6282141407       -1.8188387407
 Si         8.3820883150       -6.3440315126        3.3208069840
 Si         6.9395443929        8.8663615177       10.3367559720
 Si        -5.8994271168       -3.8038191943       -6.9506743183
 Si        -9.3110548713        0.0715801780       -6.6214072506
 Si         0.7398903142       -7.6015910801        6.8813467346
 Si         8.3177806643       -2.1544850129       -1.9356999085
 Si        -4.1196538173        4.0115599406        9.4126134448
 Si         4.3688116663        0.5518333430       -8.1550017855
 Si         0.6696519866        7.4490848803       -6.4470351672
 Si        -7.1237117876       -3.0202008485        7.2356669587
 Si        -2.2930891705        7.5141405899        5.3209676402
 Si         5.1676255303        9.6136043446        5.1659161435
 Si        -3.9065214845       -6.1430014015       -6.4592176608
 Si         7.3754131135       -8.5146381286       -5.0677751302
 Si         1.8441644300       10.2849278109        9.2994909725
 Si         6.7590201700       10.2958405512       -0.1432431119
 Si         7.0644669506       -0.2737090817       -7.5954189693
 Si        -0.0210775545        4.4718673212       -7.4443820331
 Si        -9.4751665870       -3.6183929682        2.4640814030
 Si        -3.4394239645       -5.1883358466       10.0451903363
 Si        -7.9304123826        1.7531918518       -4.4669576133
 Si        -7.8476137658        7.2067683510        0.0326026734
 Si        -6.4111130466       -7.7715686571        2.4817211169
 Si         6.6466873673        8.7443760515        2.4682322573
 Si        -1.7778353234       10.5405681104        6.1055111400
 Si         8.1666022485        4.7765149149       -0.9520117415
 Si         5.7043650048       -5.6556341702        4.7374909823
 Si         9.2802710267       -8.3034780957       10.6771730314
 Si        -9.7265439279        2.7739372541        7.7266972914
 Si        -9.0998926362        4.5402990063        3.9879297913
 Si        -5.8524793465       -0.4221531827        8.0173951871
 Si         9.2934213558        8.5120985923        6.7292990892
 Si         6.7252847132       -4.2720328695       -3.5052553256
 Si         9.9066766074        8.2021021453       -2.4015615102
 Si        -8.8558521131        4.3171726677        0.9019616952
 Si         2.7154912986        7.3390868419        9.0599155816
 Se        -2.1923562463       -0.8419558413        3.4172227667
 Se        -1.4977179808       -2.9287079309       -5.9060517342
 Se        -4.9203219143       -4.0023645660       -1.6071230564
 Se        -1.9595230961       -4.7486179548        1.8709862517
 Se         1.2809151722       -4.6437474442       -0.6604433235
 Se         1.8270207167       -7.3263260136        2.8061115617
 Se        -6.2795466257       -0.6954330771        1.8726936206
 Se        -3.7432447762        0.0251241900       -4.6053819443
 Se        -4.5832505505        2.1973349456       -0.1667502719
 Se        -1.8116343482        0.4171805076        7.9385001793
 Se         4.1186678024       -0.4626362144       -1.5298720589
 Se        -2.4484989880       -1.2534807111       -0.8961091696
 Se         1.0887240071       -0.7754191482        0.9415204803
 Se         0.9048393554       -2.9287410587        4.9287451589
 Se         5.3774224315       -4.4799057483        0.4500870645
 Se         5.7703564878       -3.3783622501        4.5697432530
 Se        -1.9833629214        5.2166658718       -2.1683537826
 Se        -4.1243757487        5.2788944554        2.2717618997
 Se        -0.5743246842        3.1008880955        4.4717631115
 Se         0.2282553993        1.2696977865       -3.5708743415
 Se        -0.8596858028        2.5216552479        0.5130106354
 Se         0.7428049638        5.8282213249        1.5488551044
 Se         1.1211616039        4.2596823629        7.5071597677
 Se         5.2421438196        1.5469541524       -4.3300204812
 Se         3.5310693423        2.7140019101        2.1032460985
 Se         1.6763234277        0.9186290339        5.3839098088
 Se         3.9235820688        0.0075138688        5.9829858956
 Se         7.8772638185       -1.0883868407       -0.0310295342
 Se        -2.1651779239        9.0554336692        0.6852295044
 Se         2.8298136362        9.4142203635        0.6045226338
 Se         2.7712048615        4.7871116542       -2.1177190240
 Se         5.5215701029        6.7727872389        2.0027351048
 Se         6.3990359581        3.2940037824       -1.4830137022
 Cd        -6.6742395359       -2.3021485479       -0.0725146228
 Cd        -4.4530567601       -2.2954196511       -3.5965418709
 Cd        -3.1085505058       -3.3536104990        3.8682496378
 Cd        -2.6974668514        0.2588168644        5.5827105659
 Cd         3.2069513541       -2.9335547382       -0.7302155846
 Cd        -0.6958324869       -2.9635421772        0.2414166439
 Cd        -7.3169648257        1.2432884355        0.1671274555
 Cd         1.0367684804        3.1626146837        2.0903949580
 Cd        -3.7624063463       -0.1079870354        1.2351722900
 Cd        -0.7765298433        2.6189855130        7.0482962079
 Cd        -1.1789855560       -0.5118409549       -5.0245830455
 Cd         5.1790081087       -0.2376416426        3.6643801856
 Cd         0.3379675954       -4.9829470511        3.2742426679
 Cd         3.4530073402       -2.7354201034        5.4095380664
 Cd         3.5752305180        0.1774605895        1.1425932980
 Cd         3.1543337378       -5.6512985614        1.0657430191
 Cd        -1.6285773168        7.5534984303       -1.2788229548
 Cd        -3.0751832672        4.3891942255        0.0903167496
 Cd        -3.0059441281        3.6458998005        3.9258601790
 Cd        -4.1316837612        0.9730848071       -2.3010564249
 Cd         0.3542713039        4.1719726837       -1.5436730733
 Cd        -0.4212926467        0.4956080858       -1.0441470151
 Cd         0.4671691785       -0.6519396114        7.2457471615
 Cd         2.7549071006        1.1557704662       -3.1934659474
 Cd         6.4408825137        0.7140522911       -0.9461342602
 Cd         0.6293840136        5.5573790762        4.7744896810
 Cd         5.7014193785       -2.1246224133        1.4778314626
 Cd         0.5496661944       -0.8309921300        3.4981101260
 Cd         2.4092622594        7.1541278608       -0.7743486587
 Cd         0.4330279132        9.4948229277        0.8579410363
 Cd         3.0246214040        7.1192592330        2.5523757700
 Cd        -1.7663039726        6.8033474900        2.0965701942
 Cd         4.3225817186        3.9112947483        0.0150992002
