402
 i =     8400, time =    16800.000, E =     -5882.4088222980
  O         6.7347569331        2.5999308995       10.5193772027
  O        -5.5305752395       -2.7201893872       -7.8605432949
  O         9.0808088281       -4.9371356566        6.4339717005
  O        -7.7266178823        8.2370699330        1.1472776986
  O         1.6844508862        9.2381790175       -4.1640415477
  O         7.7768659335        7.8861725059        2.9598920849
  O        -6.0780949155        8.2530652616        3.2991735420
  O         5.2994455119        7.0820379078       -5.4012299625
  O        -7.8860930939       -4.4165402622       -1.0410582779
  O         8.6816900879       -2.4570325701        5.5283707957
  O         9.3183019654       -1.2675410747       -2.6522470753
  O        -3.3632983133       -1.3675558020       -8.1512925025
  O         8.4570812386       -0.3408652697       -6.5159876820
  O        -5.0527106451       -5.1806760924        9.3687694195
  O        -7.4771434501       -0.4310479276        9.2235609533
  O        -6.4803443729        6.9388706428       -0.7271875796
  O        -0.3593203727       -6.4095661623        7.3552573044
  O        -6.4245574281        2.0770537637       -4.9389319897
  O        -1.6583001704        8.6537895599        5.7934802112
  O         8.3703113581       -4.3013552823       10.3722149639
  O        -8.0976703994       -5.7516696894        5.0690622487
  O         6.7849625346       -6.2843281656        3.6150676948
  O        -8.7807490788        0.1969880318       -8.0087080976
  O         3.7618789818       -8.7369419621        5.3078167924
  O        -7.7270285084       -2.1834713892       -3.4834773049
  O        -8.8213989310        8.0062294206        3.3762946584
  O        -3.0152291992        7.7965212654       -7.7620204113
  O        -7.1544158511        1.9411626924       10.2627693399
  O        -5.2083851816       -6.7389333102        6.1302830148
  O        -8.8882878509       -7.2462461964        6.9788785554
  O         0.6346028805        7.6029285361       -2.2728881876
  O         3.6062546709        3.4662104946       -5.7450653085
  O        -7.1445331135       -6.3621795869        2.6204900201
  O        -3.7982777680       -6.3106964251       -8.1573785705
  O         6.9762552587       -8.0794887877       -3.4159671724
  O        -7.2146206682       -3.6319453055        8.9780847864
  O         8.5749810485        6.8125612808        7.4788224786
  O        -3.9474301767        3.0209318976       -6.0914860211
  O         4.9957624687       -4.5443374320       -3.4393317599
  O        -7.0411258303        6.6929381212       -5.2984501324
  O        -5.8883963619        4.1368307538        9.6881890993
  O        -2.0716921338       10.4209316728        7.7716555796
  O         5.8468847584        3.5112040796        6.7193777733
  O         4.3512224270        4.3608498535        8.6938760965
  O         9.4328016283        2.6240448051        9.5031281086
  O        -2.5382454094       -5.8033553286        8.8850013601
  O        -7.7109843951        8.1262885091       -7.4808322888
  O         4.9735755449        0.8956216975        9.8449760396
  O         6.4109121426        9.4441186334        9.1469785447
  O        -0.0520872075        4.1789565491       10.3115214048
  O         5.8835053170       -6.1090186005        6.2281717176
  O         4.7780941310       -6.2295413529       -5.5184476043
  O        -3.6114871387        5.3057421531       -7.5227794407
  O         2.6228115239        8.8440178710        9.4090556836
  O         8.3574402363        4.1044120338       -7.7909986117
  O         0.7411400493        5.7268680375       -6.9635278739
  O        -8.4487188580       -1.2414861602       -5.8756241821
  O         9.2587381197        2.9492643291        4.6333883122
  O        -4.9859200153       -4.8859504180       -6.3089775989
  O         4.6296491315       -7.0987218994       -2.9613962722
  O        -8.4073098761        9.2323973877       -5.2757656535
  O        -1.9232344874        9.8905217375       10.5544077849
  O        -6.2409916550        8.1630879251        8.4208381473
  O         3.1794939756       -5.4020794277       10.1087795907
  O        -7.6782595609       -0.8638755741       -1.1237669319
  O        -6.1739456284       -4.3415870553        6.8493578651
  O         0.2423644044       -6.0756457003       -5.6268033992
  O        -7.0498151475       -3.4225384439       -5.7982646869
  O         6.8567621222        1.3524339664        8.0915543071
  O        -8.9624937173        1.3348226238       -5.6635049757
  O         4.1985287114       -3.7096785914       -7.6535740107
  O        -9.3329957661       -3.6444056376        1.0442116037
  O        -8.1423535181        5.5965632990        0.8321408877
  O         4.4734715372        5.6180687248        6.2720305312
  O        -6.6273335447       -9.2052669236       -1.2440760346
  O        -6.9233449036       -8.7293848775        8.1986175801
  O         4.1706382248        8.1418782647        5.5826917139
  O         6.4568158749       -2.0512930167       -7.3147426046
  O         3.4851440512        3.9668041838       -8.3823112950
  O        -1.1520702123        5.8747023508        8.5135836302
  O         6.7294798394       -5.1726751214        8.5107465145
  O        -5.8280862370        0.8907602059        7.5400133574
  O         9.8844592812        4.8590694575       -4.5729260850
  O        -5.7303160543       -4.8194315094        4.2824737354
  O        -7.5305683843       -9.0570485289        3.0832516397
  O         7.3937662490        1.5315301300        5.6353067350
  O         9.5634533341       -2.0497067721        3.1562461788
  O        -0.4239203404        7.7872368682       -7.7488085123
  O         7.2120650880       -7.7931550050        7.9496068901
  O        -7.6218230169        5.4490129597       -2.5244980133
  O         9.0003695717       -3.5668537461       -1.3248307827
  O         5.9226922385        6.9653552739       -2.7155890148
  O         9.0168068848       -5.3681732397       -6.4879648923
  O         5.9519642265       -2.9841980715        9.6817802945
  O         6.1239262150       -9.6359495515        6.4529962911
  O         9.0331106733        4.5224965289        0.7196085392
  O         8.1570705796       -3.0055206010        8.0956182633
  O        -4.9732915292       -1.0968086067        9.2039251439
  O         6.2050711624        3.5323263378       -6.3230811154
  O         6.4472834317        9.9190512255        1.5955796111
  O        -6.0486023664        9.6723550979       10.5695644411
  O         1.8760697871        8.3718422552       -6.7073370445
  O        -7.4912150134       -6.3403687505        9.0362705691
  O         7.1551090947       -1.1315103546        3.8314588458
  O         4.1871930220       -6.3041363961        4.3125020498
  O        -7.2075605362        5.8553119343        7.4999023665
  O        -8.2412077810        2.8622785617        0.4343996738
  O         4.8074708915       -6.8523638048        8.5840073850
  O         9.3392757413       -5.8889362125       -0.1676064639
  O         8.9915299998       -6.8941190205        4.8200637135
  O         6.8025740049       -5.7362802438       -2.0325668520
  O         6.9352821391       -2.9345285718       -2.5144489207
  O        -0.4634811037       -8.5605447438        5.7747182575
  O         9.7558409234        6.9444227311       -6.1943240741
  O         7.4408399499        0.0164429024       10.3404994136
  O         0.6787771447       -9.2448878865       10.5039983787
  O        -2.5303601736       -6.0076842860       -5.9202784911
  O        -1.6687789982        9.4603867795       -6.0947395722
  O        -3.6068933389        5.3589487813        9.1579548852
  O        -7.1271990241       -5.4502747584       -3.3392262090
  O         7.6132680034        6.1082231061       -4.6187019262
  O         2.9084031347       -8.0376658197        9.9116491946
  O        -0.9466576821       -7.8431224913       -7.1166255001
  O         6.7550357605        9.2390526800       -5.1735164659
  O         5.7962480607        9.4575985213        3.9437529928
  O        -0.3903743742       -7.0138336410        9.8249957503
  O        -8.5279943680        8.2061396198        7.1463873662
  O        -0.7421140195       -2.3805076326       10.7785324024
  O        -8.4435640414       -7.8791559038        0.4107230020
  O        -5.6264509999        4.5102342808       -4.8298782853
  O         8.3611267053        3.4371355343        7.3139347680
  O        -5.3184885340        6.3961813679       -3.1734570689
  O        -0.0808535977       -4.4941675763        9.1645791440
  O         8.3299360710       -8.4604522763        0.1959969307
  O         6.5244130089        8.8117180219       -0.7942793425
  O        -6.0681103469       10.4436960625       -3.8402940706
  O         8.8896341055        8.0275029014        5.2671609415
  O        -3.9563643599        7.8621783540        4.7204117025
  O        -4.2958887537        1.9174827056        5.5228062378
  O        -5.5361916668        9.2892288041       -6.2524754861
  O         8.9477699828       -8.5975866771       -5.0446728315
  O         7.5439383218        7.3091580860       10.0217616061
  O         2.0715650816       -8.1715170100       -5.9658445238
  O        -6.9553832952        8.2730754153       -2.9612684937
  O        -6.0357100584       -0.2071451700       -8.0211652488
  O         1.8357678837       -6.9590711574        5.9045733902
  O         6.6056443220       -5.4328820905       -7.3490305308
  O        -8.3010789219        2.9467587064       -3.4004704398
  O        -5.1721350588       -7.8799624368        3.6842467533
  O         8.9931007596       -4.6523719130        3.4053352225
  O         4.0283742421        9.4441230781       -5.8813438537
  O        -7.9672748422       -7.4743344439       -5.3904550119
  O         3.4289458716        1.3852899225       -7.4103698302
  O         6.4062025518        5.7916773553        8.0090065920
  O         5.8560224599        0.5333671549       -7.0886488585
  O         2.4600621419       -5.7492181734       -6.8720672300
  O        10.4209399196        9.5663866692       -2.5017855861
  O        -8.6168186743        3.9173498152        2.7900286474
  O         4.8559481445       -7.2112703780       11.3315241401
  O        -6.4723898595        3.4971102252       -7.1251891756
  O         5.9990595350        8.5575097128       -7.6266626886
  O        -9.3916205165       -8.3419028462        9.2915444787
  O         4.0710036328       -1.1863554694       11.1450969424
  O        -7.8455001771       -3.9148767629        3.2151639736
  O        -3.5578205814       10.0623764083       -4.3774143566
  O         3.8034600307        6.6173623463        9.9832326387
  O        -6.3377983153       -1.7246097290        7.1314842561
  O        -5.3480650854        9.8405382896        5.5636994228
  O         7.5535523018        6.1583868635       -0.8453016720
  O        -6.1626234192        3.5325060578        6.5080371664
  O         0.1899491774        7.2829721523       -5.0281232122
  O         5.8890184364        5.1311960647       -8.4829444252
  O         5.3079016254        4.8211304647       -4.1101294448
  O         9.3573557108        4.5730028854       -2.0038800173
  O        -2.9060065565        6.4155862332        6.6635930390
  O        -1.2531048306       -7.9045308442       -4.4728100916
  O         1.4737469263       -2.2315450855        9.1425994638
  O         1.5068248998       -3.7351020661       11.2353803882
  O         8.1824342574        9.7642187439       10.9722428342
  O        -1.4357905408        3.7956361635       -6.8387764207
  O        -8.9862536039       -8.6433602305       -7.4777095965
  O        -3.1191204940       -8.3256988471        5.3956861184
  O        -8.1046046906        0.3510365967       -3.4190538670
  O         9.1724709226        5.6529743975        3.8772214181
  O        -4.2779511308        9.9262340831        8.8537384226
  O        -3.3825352302        3.1347211756       -8.7607132348
  O        -1.6027823518        6.3965366921        4.2945347721
  O         1.3035587450        3.1331638971       -7.0424444907
  O         8.5395200701        9.3643482518        7.6229455906
  O        -2.8922134213       -3.9062550471       10.6379259217
  O         1.1676790997        6.5843294899        9.6390275347
  O        -6.8990059059       -4.9788204373       -8.0704593535
  O        -8.6515535392       -2.8834659854        6.9450557086
  O        -6.3412581367        7.5921700723        5.8536835560
  O        -3.6045162119       -4.5663104298        5.8781902599
  O        -4.1059924334        2.9494466291        8.0547235629
  O        -8.3900616819        4.4331289793       10.5998645090
  O         7.5630088982       -4.6821079121       -4.3748461012
  O         8.5072168733       -6.9698256277       10.7911677036
  O         8.7834825955        5.1918535106        9.3759914184
  O        -6.0678199729       -8.2664809879        1.1248459326
  O        -8.3368981821        3.6301992277        7.8645882884
  O         5.9791529949       -8.0004000801       -0.8135157508
  O         6.7731292125       -7.7987325977       -6.1701718116
  O         9.0277917050       -7.0986578008        2.2362325280
  O         2.3192465707        6.5520344913        4.9057909164
  O        -9.5464369565       -5.8861745709       -4.0720132943
  O        -6.5293577965       -6.5514041403       -0.8653653016
  O         9.9820454020        7.2125611155       -3.7688828273
  O        -9.6128536442        1.4812469230        6.8216663007
  O         2.6390314368       -5.9438279802       -4.2622337361
  O        -9.5685957059       -3.3545792356       -4.9553650713
  O         9.4335985645        0.1521840773        4.5996523008
  O        -5.4199871209        7.2092399212       -7.8065892791
  O        -2.6077264626        7.9205169532        8.8419687796
  O        10.3127599948        7.3630146607       -0.9833767488
  O         1.2849650030       -8.6054115655        7.8732946242
  O        -7.9495977616       -7.7658189808       -2.8108397772
  O        -8.2106694505        4.6810697041        5.2748057740
  O        -1.0591548343        9.0278179466       -3.5572799652
  O        -4.7021120926       -7.5149026482       -5.7996808869
  O        -4.2260272583        6.7320322247       -5.4348045778
  O         8.1923949118        8.2355335576       -2.3514796781
  O         2.9059124917        7.0416842850        7.5800383284
 Si         2.9872877567       -7.3481195428        4.7809348867
 Si        -6.6955963376       -5.0417507423        9.6903001303
 Si        -4.0410547977        6.7543015014       -7.0773025463
 Si         6.5275716205        1.2090030467        9.6829802837
 Si        -9.4087005270       -4.4387975949       -0.4062362960
 Si        -9.3959703944       -6.2154524177        5.8651224972
 Si         9.0565453635        7.3056960518        3.7912308310
 Si        -8.2258571044        7.7469143945       -5.9757802732
 Si         3.9398208874       -6.8507396739       10.0073366853
 Si        -3.0482838565        3.8067803584       -7.3016659016
 Si        -8.9908752143       -8.6664962982       -5.8314324332
 Si         6.0192384704        6.2704504701       -4.1665468853
 Si         3.4417445067        6.8249211365        6.0452895958
 Si        -7.3686368174        0.4070897941       10.5899195134
 Si         8.1729086083       -5.5533873199       -7.8734412735
 Si         6.1736250377       -6.5096609738        7.7654565214
 Si        -7.3699479630        9.9540509557       -2.7231544983
 Si        -5.1008380778       -5.0745370945        5.7919293187
 Si         4.3778445122        5.0919686736       10.2017132713
 Si        -4.9815749968       -1.3581526827       10.8440306235
 Si        -7.1307379932        7.4376730381        7.2149964205
 Si         2.3971485122        9.5895411090       -5.6456222437
 Si        -5.5999787853        6.1247118887       -4.7677299970
 Si         5.1399189946       -2.5451730977       -8.2561217055
 Si         7.0541739030       -9.3982241439        7.7709500384
 Si        -7.2068407088       -5.2399193709        3.7888416903
 Si         5.1228088946        3.5200165143       -5.1021949600
 Si        -1.7504681629        8.7058353543       -7.4660977747
 Si        -8.1304197066       -2.5561850254       -5.0072859829
 Si         5.3008978833        4.8404444678        7.4634781258
 Si         4.2592314840       -5.9162457709       -4.0551001412
 Si         7.0985453397        2.4703649992        6.9322209088
 Si        -8.7911525611        4.4729791770       -3.0632537831
 Si         9.1283017580       -3.2986815008        6.8159950473
 Si        -6.6827442742       -5.2413990685       -1.8747381999
 Si        -2.2148604464       -2.6504109099       -8.0016210343
 Si        -6.6626317379        6.7891739613       -2.3340293319
 Si         9.3702791788        4.0660497422       10.3081958367
 Si        -8.1676214857       -7.6640066553        8.3476489350
 Si        -2.7298594480        9.4755983999        8.9182412768
 Si         0.5883171824       -3.2101892352        9.9567993648
 Si         8.6414984474       -1.3174739911        4.2824949434
 Si        -5.1319048039        2.3269152863        6.8833011912
 Si        -6.8818352584       -8.0028746598       -0.1924027228
 Si         2.7926178547       -4.5915109486       -7.9490772070
 Si        -5.8360506933        9.5937099116        8.9982257210
 Si        -8.4095080315       -0.9993936255       -2.5294991172
 Si         5.4862542391        8.6264383602       -6.0815882816
 Si        -8.1354618009       -6.6953135701       -3.9455938498
 Si        -7.6122602917        8.6616368607        2.6458264375
 Si        -5.4493939274        8.4208224185        4.8199773375
 Si         0.4104514982        8.2703413490       -3.7017892859
 Si         6.0859216721       -7.2625364858       -2.2792937912
 Si         7.7712233848        6.3300795967        8.7178567310
 Si         9.0843741585       -4.7889016125       -4.9531608938
 Si         7.2757916347       -3.8386170456        9.2687683365
 Si        -1.9313382490        9.9671542782       -4.5384054819
 Si        -4.7618001319       -8.0465686967        5.2412973831
 Si        -0.6046780780       -8.2360164561       10.7646388508
 Si        -7.0519451082        3.4735180385       -8.6620075069
 Si         1.8391085773       -6.5436379244       -5.6180482859
 Si        -6.1721391053        8.6486702975       -7.6111060194
 Si         9.1787777196        6.2255715716       -4.7792177161
 Si        -7.5295807922        4.4304764487        6.6950848016
 Si        -0.9214323774       -5.8255856712        8.7232685142
 Si         9.0437601569        1.4795897633        5.2899619334
 Si         9.4289889974       -7.3507544669        0.6724508984
 Si        -5.0662353746       10.3969046555       -5.0605882909
 Si         0.2356266091        5.3404886033        9.0466569081
 Si        -2.6749879473        6.3376293272        8.2679493044
 Si         6.7864805593        3.8181053040       -7.8107088649
 Si         5.7308835903       -6.6627099597       -6.7597616464
 Si         2.9118741727        2.9309228471       -7.1709917176
 Si        -1.1508343202       -6.9220018270       -5.7374381154
 Si        -5.5906146463        3.2254309053       -5.7756623180
 Si         6.9975125434        7.5140557859       -1.5970055064
 Si         8.4306187635       -6.2118365556        3.4785654425
 Si         7.0114690506        8.7133461074       10.5132435150
 Si        -6.1803075379       -3.9506613754       -7.0396285396
 Si        -9.3442191391       -0.0075722976       -6.5204094116
 Si         0.5359511691       -7.6660290134        6.7935809017
 Si         8.2274085767       -2.1720508857       -1.6984650525
 Si        -4.2207955807        3.8699670516        9.4099840592
 Si         4.4738796107        0.3655432623       -8.0581911602
 Si         0.6726494611        7.2812692525       -6.6329161592
 Si        -7.1431535191       -3.1617710644        7.4586896768
 Si        -2.5402715219        7.3475390831        5.3331565293
 Si         4.9607885635        9.5315471892        5.3338019130
 Si        -4.0967875264       -6.2155626897       -6.5281539663
 Si         7.3497399090       -8.6535484502       -4.8993204035
 Si         1.8865755794       10.2718757472        9.4438593460
 Si         6.8722346299       10.2376195494        0.0249034687
 Si         7.1016814996       -0.4673532345       -7.4361051431
 Si         0.1124173843        4.2563082203       -7.4149994328
 Si        -9.3903562869       -3.5389107044        2.7205420697
 Si        -3.6126823572       -5.2581126011       10.0537499350
 Si        -8.0021813662        1.6114458938       -4.4161227399
 Si        -7.9221146213        7.0118456287        0.0902994812
 Si        -6.4746268711       -7.8963622268        2.6514894487
 Si         6.3312184335        8.6200521695        2.6618476077
 Si        -1.9800780365       10.2221715746        6.1130450692
 Si         8.3359729905        4.7163490895       -0.7177362791
 Si         5.6712778017       -5.6340492458        4.6702360373
 Si         9.2350070163       -8.4526672833       10.7207660510
 Si        -9.6921193790        2.7210292524        7.8929391024
 Si        -9.3147450696        4.2732644738        4.1919693173
 Si        -6.1666137659       -0.5584300019        8.1927719448
 Si         9.2621399399        8.1424543868        6.8598619139
 Si         6.6256347974       -4.4816570924       -3.0696389393
 Si         9.7948557998        8.1001375831       -2.3981203655
 Si        -8.7128547549        4.1666094664        1.1567866395
 Si         2.6009283591        7.2803740736        9.0990923211
 Se        -2.2764195983       -1.1974648147        3.5296293277
 Se        -1.5497777494       -3.1610001909       -5.8041007185
 Se        -4.7889335691       -3.8907968817       -1.8136866960
 Se        -1.7302582407       -5.0877082022        2.0868608864
 Se         1.4856424696       -5.0421297511       -0.7284962412
 Se         1.7713981040       -7.3641828818        2.9317165555
 Se        -5.8337552659       -0.9139122791        1.7564321820
 Se        -3.7407043238       -0.2654281671       -4.9779886690
 Se        -4.6036328938        1.6493965462       -0.5306083868
 Se        -1.9147277174        0.2521624745        8.1240425878
 Se         3.9721969379       -0.4138520842       -1.1094436910
 Se        -1.9069106196       -1.7005057946       -1.0546703078
 Se         1.4302146859       -1.4372554813        1.3131583982
 Se         0.7240227987       -3.5325262265        5.8946413801
 Se         5.1385164964       -4.3572417862        0.7593678265
 Se         5.6334987858       -3.4237693256        4.7179079735
 Se        -2.0156037796        4.7548194220       -2.3557087049
 Se        -4.0711959169        4.9494968876        1.9929204281
 Se        -0.8110019371        2.7600650018        4.5808894704
 Se         0.3480804200        0.9405285451       -2.9638612870
 Se        -0.8046954882        2.0435756686        0.6963582919
 Se         0.7120762003        5.6823909769        1.8700220629
 Se         1.2804671170        4.1123822162        7.4437261715
 Se         5.3188524884        1.5534199513       -4.0038230521
 Se         3.4323340236        2.5695231104        2.6959289129
 Se         1.6188565742        0.5863916117        5.7089845634
 Se         3.6374106647       -0.4404302262        6.5754607487
 Se         7.6521623795       -1.0713705125        0.2067936989
 Se        -2.3025000994        8.8161090924        0.4941204454
 Se         2.6870427439        9.1747924211        0.5184700244
 Se         2.7525374994        4.4474300240       -1.5450090123
 Se         5.1228612995        6.6898048950        2.0811060513
 Se         6.3838424470        3.5243629088       -1.1745795459
 Cd        -6.1872242448       -2.3033583666       -0.3532410163
 Cd        -3.9271585764       -2.7401346556       -3.9844374472
 Cd        -2.9209867769       -3.7550503629        4.0374649949
 Cd        -2.6271542426        0.4633820681        5.5793498423
 Cd         3.2083965598       -2.9982616447       -0.8463988895
 Cd        -0.4719589054       -3.4566063314        0.2978037981
 Cd        -7.1279254529        1.1421448111        0.5839753369
 Cd         0.9986378532        2.9480659076        2.3674767305
 Cd        -3.3096045311       -0.4175985926        0.8563692162
 Cd        -0.5490831704        2.3405598025        7.2440036782
 Cd        -1.2095876751       -0.6270555019       -4.4064585583
 Cd         5.1035464961       -0.3324142610        4.4082905655
 Cd         0.2892259145       -5.0683879638        3.8638241585
 Cd         3.2322426637       -3.1277942708        5.7142175068
 Cd         3.8088716951        0.0611610201        1.8412582642
 Cd         3.1055518356       -5.6394046448        1.3619464622
 Cd        -1.7285189491        7.2189959820       -1.5100892007
 Cd        -3.0453912779        3.7262881312       -0.1292978322
 Cd        -3.3632884625        3.4572960692        3.9639023893
 Cd        -4.4428101460        0.9812316025       -2.9214188859
 Cd         0.2016158853        3.7354629618       -1.2641882311
 Cd         0.1366989235       -0.0373435066       -0.5943404143
 Cd         0.3098711138       -1.1764896222        7.6243269841
 Cd         2.9213924520        0.9869118972       -2.9267863355
 Cd         6.4083312704        0.9059079861       -0.9592594929
 Cd         0.4310202052        5.3704379825        4.7232859247
 Cd         5.7476813401       -2.1308995461        2.0500257278
 Cd         0.4783707539       -1.1288827190        3.8666898193
 Cd         2.0469869457        6.8263370916       -0.5741362701
 Cd         0.2061613707        9.4105232522        0.6734011683
 Cd         2.8455713295        7.4372563148        2.8368235167
 Cd        -1.8346463786        6.4867715320        2.0341331063
 Cd         4.1940471868        3.7059516637        0.5193649602
