402
 i =     9900, time =    19800.000, E =     -5882.4325533852
  O         6.5972137311        3.1906082574        9.9509015241
  O        -5.6077758905       -1.9960841469       -8.0224313173
  O         9.0101365820       -4.3632712484        6.0386071063
  O        -7.4755278831        8.8119780505        0.8414522041
  O         1.7026497625        9.8586766084       -4.5919433433
  O         8.0988164724        8.5442510707        2.4334297009
  O        -6.0079777979        8.8021474559        3.0461162702
  O         5.3280371416        7.7523001757       -5.8808959854
  O        -7.9903546666       -4.0337962159       -1.1628826984
  O         8.7916621535       -1.7349293186        5.4321872985
  O         9.4571183647       -0.8382182134       -2.9548017293
  O        -3.3439004555       -0.7160870592       -8.4524662656
  O         8.3822321896        0.6059837282       -7.0124727943
  O        -4.9850331892       -4.4507536454        9.0632448583
  O        -7.4358095929        0.6504918959        8.7870135353
  O        -6.4675058505        7.1324524244       -1.0268978168
  O        -0.1109451905       -5.7149795932        6.9856486500
  O        -6.5191582786        2.7425886468       -5.3538374060
  O        -1.6878243678        9.1949754729        5.5651539372
  O         8.1794933492       -3.5821265764       10.2524038977
  O        -8.1729292505       -5.1363827139        4.7384298525
  O         6.6913212848       -5.8429623962        3.4220655013
  O        -8.7461877698        0.8665039370       -8.3587977454
  O         4.0121438476       -8.2019261387        4.6943293745
  O        -7.5956261235       -1.4087239810       -4.0118039096
  O        -8.6635546540        8.4524930415        3.1367757837
  O        -2.8498655456        8.1227564743       -8.0461374290
  O        -7.1489536368        2.7476702465       10.2055086002
  O        -5.2422017709       -6.1614570530        5.5727498978
  O        -8.9403934780       -6.4130869653        6.9253610758
  O         0.6490056525        8.1827910346       -2.6756303260
  O         3.6370470612        4.2314822700       -6.3868471972
  O        -7.0420635079       -5.9763223797        2.4115624916
  O        -3.6086820629       -5.8122594686       -8.4486318662
  O         6.8523081763       -7.5728432523       -3.8339354627
  O        -6.9705709026       -2.9310537780        8.7429120863
  O         8.8470178310        7.5485551532        7.2921330509
  O        -4.0396822369        3.4109395825       -6.5771897620
  O         5.0017575629       -3.9527247409       -3.9640686583
  O        -6.8830816262        7.2739005956       -5.7154687331
  O        -5.7565133665        4.7527191795        9.3502756313
  O        -1.9631525442       10.9904386386        7.4704523402
  O         5.6401165380        4.0429175642        6.2737172346
  O         4.4647687227        5.0327570846        8.3495101105
  O         9.4837700032        3.1949171711        9.1265615961
  O        -2.6019883153       -5.0005539791        8.3317020010
  O        -7.7387636558        8.6498818917       -7.8858977766
  O         4.5979517118        1.5985640114        9.4630565211
  O         6.4137314292       10.0788394389        8.5611860555
  O        -0.3097511380        5.0061576681        9.9451110937
  O         5.8594789960       -5.5549952937        5.9480585153
  O         4.7391418607       -5.8605353019       -5.8196286041
  O        -3.5770657594        5.7929027620       -7.7440215431
  O         2.5397763715        9.3712647937        9.0430165885
  O         8.3562249498        4.4819877733       -8.2314220473
  O         0.7362840963        6.2223272833       -7.2818685989
  O        -8.7632572694       -0.8184847800       -6.3987924858
  O         9.2837980606        3.5477899621        4.2563215342
  O        -4.7910907232       -4.2514041935       -6.5701014254
  O         4.6002711458       -6.5733237728       -3.3505965612
  O        -8.3338168012        9.7737385870       -5.7433048506
  O        -1.9139180582       10.4494545988       10.0743383233
  O        -6.1522958881        8.8516020849        7.8685511378
  O         3.3459641535       -4.8146993267        9.6426343647
  O        -7.6277759460       -0.2272846173       -1.5389282663
  O        -6.1995345390       -3.7270575714        6.4687092511
  O         0.3153385410       -5.5164507450       -5.7238471761
  O        -6.8714879078       -2.6953900483       -5.9938951254
  O         6.4619114422        1.8153102699        7.6609709008
  O        -8.9823622335        1.9237653983       -5.8776957149
  O         4.1345504114       -3.1013174734       -7.9012480028
  O        -9.7363047018       -3.2472824680        0.6926701817
  O        -8.2886680174        6.2058743987        0.5962068506
  O         4.6316533891        6.3037492556        5.8961741864
  O        -6.5712164562       -8.7366927474       -1.5035812178
  O        -6.8531014458       -7.9661988693        7.7581582270
  O         4.2425768991        8.7577014529        5.4663762915
  O         6.3780429097       -1.3457593767       -7.6122783909
  O         3.2587889696        4.5607575588       -8.9248851581
  O        -1.0308294570        6.6695553446        8.0305701564
  O         6.8000790511       -4.6278548460        8.2094854221
  O        -5.4287056260        1.4902692316        7.1365351619
  O         9.7560634634        5.3195976516       -4.8742586290
  O        -5.9711763275       -4.1458624573        3.9149704516
  O        -7.3508908030       -8.5952557495        2.7401501714
  O         7.4141838497        1.9933364474        5.3205847251
  O         9.5576972788       -1.6358382983        2.8397036948
  O        -0.4837532306        8.4045128679       -8.0723675465
  O         7.2705949842       -7.0995735352        7.5186947027
  O        -7.6079477973        6.0881070456       -3.1988684721
  O         9.0026045877       -3.3198365142       -1.8636776103
  O         5.9511172415        7.5739724791       -3.1870322029
  O         9.1639117200       -4.6551141336       -6.8767148973
  O         5.8459674847       -2.4925487892        9.5104355880
  O         6.2055706521       -8.9240405685        5.9286253865
  O         8.8875050605        4.8844886277        0.4284104380
  O         8.1561883230       -2.4979621413        7.7973970061
  O        -5.1087161018       -0.5282001318        9.0172095518
  O         6.2366017455        3.8914495861       -6.8034536048
  O         6.6009279623       10.2226222968        1.1667502303
  O        -6.3562982949       10.2240048078       10.1182863278
  O         1.7176622366        8.9824709325       -7.0630088037
  O        -7.3348360836       -5.6969448942        8.9084425598
  O         7.1850350055       -0.7151401008        3.4438699636
  O         4.0528024457       -5.6930304768        4.0760792705
  O        -7.1830670552        6.4577191821        7.0841054827
  O        -8.1402664872        3.5499883097       -0.0070046406
  O         4.8925753804       -6.4207260693        8.2780875019
  O         9.3210297779       -5.6158339292       -0.4589822846
  O         9.0271534723       -6.5576063328        4.4752808917
  O         6.7938955713       -5.2313730877       -2.5177574039
  O         6.9923623016       -2.3637415803       -2.8894306012
  O        -0.4456150658       -7.8605278045        5.5046988328
  O         9.9501384382        7.4041812542       -6.4303555810
  O         7.0259396533        0.5659712511       10.0013629203
  O         0.5829759731       -8.6058200682       10.1518382634
  O        -2.4097880026       -5.4493315680       -6.2414689351
  O        -1.9669988697       10.1859137647       -6.6151827620
  O        -3.4093425888        5.8839197892        8.7559501937
  O        -7.2452643619       -4.9310588084       -3.7350369820
  O         7.5735203922        6.7710716579       -5.2613451186
  O         2.9416915836       -7.5410659091        9.5731982263
  O        -0.7306025153       -7.0229771798       -7.5880788849
  O         6.6870456966        9.9855665681       -5.6860767258
  O         5.8841027594        9.5199675720        3.4612424080
  O        -0.8275814431       -6.5380319918        9.2063297633
  O        -8.4259152414        8.8582699322        6.4914064641
  O        -0.7283663252       -1.8180310925       10.4313653194
  O        -8.4775040515       -7.4947168598        0.0707061891
  O        -5.3026066352        5.1680430508       -5.1434838299
  O         8.0703795834        3.8394934867        7.0968357852
  O        -5.1893391459        6.9672939580       -3.4566838596
  O        -0.2131473468       -3.9293236914        9.1190213468
  O         8.2931329763       -8.2114820335       -0.4221162715
  O         6.2655910563        9.0935842582       -1.0544850485
  O        -6.1100137916       10.8324930801       -4.3004638158
  O         8.8185797454        8.5265102388        4.9643834809
  O        -3.8364593432        8.4711581878        4.2515280796
  O        -4.3643430449        2.6430738418        5.0903463939
  O        -5.5929794094       10.1155121075       -6.8027181110
  O         9.0003873957       -8.0725866535       -5.1802898464
  O         7.5829934160        7.9855552452        9.6254835793
  O         1.9605273170       -7.5928017885       -6.2420242941
  O        -6.9869398398        8.7043100291       -3.1869717485
  O        -5.9733167370        0.5625911883       -8.2316321637
  O         1.9623778629       -6.4532653727        5.5211179302
  O         6.5265379896       -4.7866245042       -7.6630999279
  O        -8.4063432793        3.5634283043       -3.7519488526
  O        -4.9530259556       -7.3909645936        3.1860972286
  O         8.8454995246       -4.4164116317        2.8970078017
  O         4.0206314930       10.0953690551       -6.2470612888
  O        -8.1108568096       -6.8111220137       -5.6470441012
  O         3.1222514102        1.9469099465       -7.8306992876
  O         6.5569880309        6.3149074064        7.7331935640
  O         5.6209908049        1.1252673631       -7.4043511811
  O         2.3466778248       -5.0673963371       -7.1979290571
  O        10.4448865825       10.1023584052       -3.0046635784
  O        -8.6636346036        4.4513798376        2.3837833633
  O         4.8515300766       -6.6175041487       11.0531341430
  O        -6.2410480041        4.5786188215       -7.4495210703
  O         5.9132090579        9.2341573981       -8.1392860172
  O        -9.1071074311       -7.7446774947        9.1718768813
  O         4.0356125962       -0.6787988605       10.7336966285
  O        -8.0598485249       -3.5624828085        2.6453034730
  O        -3.5760845008       10.4915455450       -4.7715234869
  O         3.7928028507        7.1368039566        9.7295188720
  O        -6.4100027118       -1.0009628780        6.8740707121
  O        -5.3535738063       10.4289884115        5.2239705975
  O         7.4589068331        6.6064015718       -1.1428110333
  O        -6.2588158190        3.9737163855        6.2280163411
  O         0.0179109336        8.0357326130       -5.4846878212
  O         5.7795049748        5.5611614155       -8.7474852179
  O         5.3439899099        5.4252963309       -4.7070479245
  O         9.4592309370        5.1825087982       -2.2154980978
  O        -3.1225525040        7.1326789361        6.4017544825
  O        -1.2836951392       -7.3250321613       -4.9508703597
  O         1.0786777698       -1.5210505457        8.4439541213
  O         1.6410181036       -2.9567801758       10.6354248639
  O         8.1471452237       10.4276274332       10.4091732168
  O        -1.4690305896        4.3444628225       -7.2557955849
  O        -9.1841256962       -7.9472383270       -7.6638123271
  O        -3.0327608539       -7.7428732916        5.0403097252
  O        -7.8667141408        1.0177624969       -3.7994968946
  O         9.1726563425        6.2730420721        3.7048554255
  O        -4.3785107005       10.6415646853        8.4531262214
  O        -3.4092742652        3.6321308097       -9.1699923118
  O        -1.5652853140        7.0218085766        4.1539009757
  O         1.1913910322        3.7524743294       -7.6105902774
  O         8.6474686516       10.2550052721        6.9915170178
  O        -2.9974365823       -3.2515167588       10.4350651762
  O         1.2090109524        7.0872416061        9.1070789329
  O        -6.8362452200       -4.2623110997       -8.2139238484
  O        -8.5609972089       -2.6348167916        6.7966355557
  O        -6.2086828162        7.9214478121        5.3488168479
  O        -3.6953658131       -3.8982286136        5.4376719766
  O        -3.9905354778        3.6312033963        7.6369368479
  O        -8.3796244595        5.0042507854       10.4070345613
  O         7.4821501044       -4.1735633828       -4.8717696445
  O         8.5596765576       -6.2541370346       10.5292401060
  O         8.8868835558        5.7749384283        9.0217547355
  O        -5.8441098193       -7.5553933633        0.6869734090
  O        -8.7266785403        4.3670742617        7.1243913655
  O         5.9068805331       -7.6499539189       -1.1665672306
  O         6.9593265738       -6.9902869554       -6.4598851226
  O         8.7927839195       -6.9359240329        1.8000909514
  O         2.4994957833        6.9160773805        4.4535539869
  O        -9.6760227193       -5.4347569889       -4.1622017676
  O        -6.5823480751       -6.0871948618       -1.2720413882
  O         9.7668542468        7.6873772582       -3.8447041583
  O        -9.5407571307        2.0453984623        6.3932143793
  O         2.5757627945       -5.3916307103       -4.5709683996
  O        -9.5185762149       -2.9361148296       -5.0715592110
  O         9.4390732620        0.7084804035        4.1705809427
  O        -5.3541788314        7.8074593058       -8.3280612577
  O        -2.9187184629        8.5673313294        8.6157599786
  O        10.3840790827        7.9188386760       -1.2891032472
  O         1.3852038458       -7.9732367458        7.5272508620
  O        -7.8768964415       -7.2800975815       -3.0197325190
  O        -8.1427346449        5.3143657520        4.8163996223
  O        -1.1364456668        9.6330409099       -3.9180206152
  O        -4.7277988733       -6.8795542080       -6.1220294614
  O        -4.2838419382        7.4573228890       -5.9013097413
  O         8.1449714867        8.8271172467       -2.4230545027
  O         2.7577393863        7.4914723220        7.2113465993
 Si         3.0592972349       -6.9405247645        4.3474351752
 Si        -6.5882794910       -4.3376464472        9.4721742304
 Si        -4.0888153543        7.2972994253       -7.4537861428
 Si         6.2193107984        1.7917279952        9.2320732375
 Si        -9.5323979542       -4.0764030213       -0.6742287561
 Si        -9.4388218456       -5.6822083218        5.5708613334
 Si         9.2371511493        7.9067439661        3.5298674431
 Si        -8.0939486719        8.2884123280       -6.2983443848
 Si         4.0637061106       -6.2932259379        9.6378614635
 Si        -3.0450040942        4.2552382772       -7.6430607843
 Si        -9.0122113224       -8.1222684913       -6.0901806650
 Si         6.0281736466        6.8891976430       -4.7255222454
 Si         3.4404799444        7.3640969612        5.6694694786
 Si        -7.2690691439        1.1420652875       10.3297947629
 Si         8.1188826564       -4.8647634232       -8.1075351055
 Si         6.2409064738       -5.9316905893        7.4943083145
 Si        -7.2170067055       10.4246293570       -3.0299714550
 Si        -5.2018996490       -4.4647854592        5.4094014964
 Si         4.3313556143        5.5594674105        9.8724813932
 Si        -5.0109729453       -0.7422103327       10.5935130141
 Si        -7.0333221950        7.9868023904        6.7515141345
 Si         2.3700400518       10.1402503268       -6.0340591886
 Si        -5.5023321098        6.7653152048       -5.0334359523
 Si         5.1130393419       -1.9392715452       -8.5083239671
 Si         7.1076583347       -8.6650816959        7.2630512471
 Si        -7.3066122233       -4.7757072994        3.4260033049
 Si         5.0420804496        4.0199890869       -5.5974827022
 Si        -1.8149019498        9.2777471987       -7.9469643386
 Si        -8.2367708618       -2.0161095637       -5.4077052603
 Si         5.3686846696        5.4874710552        7.0454215617
 Si         4.1996276951       -5.3528646319       -4.3663034249
 Si         6.8419206319        2.9105871691        6.5751829974
 Si        -8.8451054853        5.1009789995       -3.4718384108
 Si         9.2106014320       -2.7781808963        6.5449731385
 Si        -6.8639035552       -4.7823425853       -2.1652547768
 Si        -2.2641211696       -1.9786493380       -8.2142082778
 Si        -6.5578271360        7.2316568966       -2.6178103064
 Si         9.4759774050        4.6023125330       10.0038713876
 Si        -8.0972903455       -6.9402817101        8.1784733559
 Si        -2.8360612522       10.1801948025        8.5786477746
 Si         0.4810470365       -2.4563199081        9.5785878842
 Si         8.6796626756       -0.7575533119        3.9714622713
 Si        -5.0473979510        2.9578050671        6.5370348566
 Si        -6.8923660984       -7.4513615383       -0.5291483255
 Si         2.8340746856       -4.0117304552       -8.3642431380
 Si        -6.0113583596       10.2731870410        8.5318506328
 Si        -8.2613120332       -0.3520330363       -2.9721936561
 Si         5.4828683713        9.2996629612       -6.5337632887
 Si        -8.2241835899       -6.2072830603       -4.1171557769
 Si        -7.3953904324        9.1761591872        2.3979056777
 Si        -5.3433155274        8.9635399831        4.5033653966
 Si         0.3965790811        8.8991365688       -4.0905428059
 Si         6.0308666452       -6.7846059895       -2.6116610702
 Si         7.9235858392        6.9065751169        8.3962927372
 Si         9.0838772619       -4.3433285745       -5.2053867102
 Si         7.2706270709       -3.2320469101        8.9525825393
 Si        -2.0008517825       10.5213625427       -5.0193852222
 Si        -4.6871576740       -7.4647185455        4.7935922749
 Si        -0.6671786166       -7.6195630169       10.3309517582
 Si        -6.8963681486        4.3270176127       -8.8870759354
 Si         1.8846374515       -5.9636852800       -5.9599323136
 Si        -6.2672406464        9.2033676962       -8.0321633307
 Si         9.1888047378        6.8370399627       -5.0626888752
 Si        -7.5085872569        4.9928998509        6.3134833227
 Si        -0.9334492540       -5.1511441025        8.3435939033
 Si         9.0337151748        2.0614745114        4.9438017640
 Si         9.3225225496       -7.0963153566        0.2959894165
 Si        -5.0541899393       10.9777756210       -5.4517056782
 Si         0.2229002489        5.9059640694        8.6365222620
 Si        -2.6365256594        7.0797944354        7.9698712213
 Si         6.7550705390        4.3009142143       -8.2550304664
 Si         5.7115507088       -6.0629188560       -7.0260705057
 Si         2.7697320579        3.6132557729       -7.6546673150
 Si        -1.0553757756       -6.2891939086       -6.1021725393
 Si        -5.5690681303        3.9367906924       -6.0860884810
 Si         6.9580574163        7.9189300620       -1.9233614033
 Si         8.3026052068       -5.9909419753        3.1057551386
 Si         6.9449173346        9.3967143993        9.9825463281
 Si        -5.9961516749       -3.3162981901       -7.2037421458
 Si        -9.3354087129        0.6383945337       -6.8380273907
 Si         0.7061105964       -7.0496257769        6.3820658273
 Si         8.3783164961       -1.8120835095       -2.1343359857
 Si        -4.1799594712        4.4464311305        9.0694162130
 Si         4.3226363504        0.9439971139       -8.4036675149
 Si         0.5773015296        7.8733087963       -6.9806789491
 Si        -7.0062175049       -2.5373698182        7.1700676969
 Si        -2.6036702062        7.9162208429        5.0312787157
 Si         5.1614100257        9.9270537113        4.8419701643
 Si        -3.9148220443       -5.6718898120       -6.8180405369
 Si         7.3939185644       -7.9986012132       -5.2712551453
 Si         1.8395163267       10.8058104747        8.9909173008
 Si         6.7852903090       10.5005604462       -0.4527704928
 Si         6.9399953959        0.1822384289       -7.7753889783
 Si         0.0007824103        4.8868333710       -7.8208930814
 Si        -9.5915854479       -3.1626010666        2.3507594407
 Si        -3.5302399909       -4.6838511999        9.7288250457
 Si        -7.9242046579        2.3741857102       -4.6980217179
 Si        -7.7980306178        7.5177472305       -0.1264431305
 Si        -6.2791203032       -7.3961627354        2.2076738088
 Si         6.5309383315        8.8890602173        2.1058681248
 Si        -1.8392656544       10.8070013584        5.7424992671
 Si         8.3359973198        5.2207877440       -1.0843179894
 Si         5.5488761202       -5.1441689984        4.4207193472
 Si         9.2553958718       -7.7593407494       10.4631510958
 Si        -9.8125285416        3.2984628669        7.4876879891
 Si        -9.3159252615        4.8916660243        3.7673013750
 Si        -6.0917987810        0.2010274414        7.8995688301
 Si         9.3366831631        8.8475112948        6.4561772693
 Si         6.5809223153       -3.9055066634       -3.4606268137
 Si         9.7655044505        8.7042411921       -2.5533326339
 Si        -8.8393394949        4.7225399050        0.7515965776
 Si         2.6356069025        7.7636501269        8.7930028377
 Se        -2.2819957580       -0.6920555965        3.0307219048
 Se        -1.7096273203       -2.4531431198       -6.0350042153
 Se        -4.9440232082       -3.4546378148       -2.1180136841
 Se        -2.0238029752       -4.8493124008        1.7762944758
 Se         1.2180407418       -4.2498551371       -1.1610477917
 Se         1.7257179985       -7.0137506914        2.4185252803
 Se        -6.4291632375       -0.6021770224        1.7030707370
 Se        -4.2866015600        0.3182080657       -4.9402673987
 Se        -4.7358176008        2.2209544629       -0.3626031239
 Se        -2.0659966036        0.8373828099        7.6375592368
 Se         4.1050513787       -0.0939641025       -1.6579458683
 Se        -2.4994267697       -1.3354041557       -0.9825126223
 Se         1.3866324869       -0.3907917791        0.8207650163
 Se         0.5988143703       -2.9029487710        4.8489965124
 Se         4.9243537723       -3.8120604963        0.0730234571
 Se         5.6978200059       -2.9424176092        4.6425963260
 Se        -1.8074196670        5.2534866802       -2.5602838800
 Se        -4.1661886436        5.5343869532        1.6659832118
 Se        -0.9042050656        3.3256223720        4.2642436685
 Se         0.1650951639        1.3440811062       -3.5777820480
 Se        -0.7385969969        2.4759294272        0.2796958258
 Se         0.9062244550        5.9804998737        1.8509032663
 Se         1.1423188153        4.4584517853        7.2319287641
 Se         4.9840034503        2.1473696209       -4.3868838786
 Se         3.9580490144        3.1003390398        1.8006542516
 Se         1.6857590409        1.1027079782        4.9443815048
 Se         3.7377274814        0.1232952518        5.8990388289
 Se         8.0103871269       -0.6763610942       -0.2805994001
 Se        -1.9468211287        8.9774301579        0.4161743119
 Se         2.8409472815        9.6044602102        0.2237217985
 Se         2.6070549423        5.0211102058       -2.2971533621
 Se         5.6295859083        7.0537538797        1.4362291128
 Se         6.7182531485        3.7384038084       -1.8588815097
 Cd        -6.3872393767       -1.7862507191       -0.6153890461
 Cd        -4.2392183143       -2.2602558229       -4.4523207447
 Cd        -2.8041755970       -3.1144249116        3.6849043186
 Cd        -2.7826764281        1.0550737818        4.9038416214
 Cd         2.7726939082       -2.2608919508       -0.6766478595
 Cd        -0.9828022833       -3.2900554811        0.0393635736
 Cd        -7.2707374238        1.5575570153        0.3782990529
 Cd         1.4067172928        3.3425851872        1.5953453845
 Cd        -3.8489709812       -0.3242323458        0.9344729000
 Cd        -1.1283043877        3.1089040422        7.1277766015
 Cd        -1.7235421906       -0.0438777770       -4.8600053829
 Cd         5.2066474935        0.4278766280        3.6781161824
 Cd         0.2970906095       -4.9127561270        3.0879225861
 Cd         3.1608614569       -2.4876106992        5.3461340730
 Cd         4.0520135587        0.5061239832        1.1603223626
 Cd         2.7776436168       -5.1861169413        0.7115218754
 Cd        -1.5982723707        7.6382000695       -1.7498343520
 Cd        -2.7487647277        4.1212045790       -0.1653606458
 Cd        -3.3735705689        4.0476889563        3.6738821050
 Cd        -4.7095313242        1.1013515158       -2.5356696134
 Cd         0.1942161976        3.8212835511       -1.8471861729
 Cd        -0.3659246976        0.1729292085       -1.0386494159
 Cd         0.2994580799        0.0960592515        6.9960243579
 Cd         2.7465024912        1.3521335360       -3.4511787965
 Cd         6.5702025470        1.1185244703       -1.4578442916
 Cd         0.5549428700        5.7614017319        4.6434582664
 Cd         5.4280406383       -2.0926130833        2.0442491198
 Cd         0.4637346840       -0.7915378104        3.1891199727
 Cd         2.5419660542        7.6286296397       -1.3318493168
 Cd         0.4091352737        9.7940170363        0.4466507059
 Cd         3.1894286930        7.0832340121        2.3283678552
 Cd        -1.8714635136        6.7731779722        1.9797939221
 Cd         4.5300797839        4.2584189844       -0.5669137989
