402
 i =     5400, time =    10800.000, E =     -5882.4111567788
  O         6.4721059891        1.3990417721       10.5423805765
  O        -5.3970394862       -3.9010765169       -7.3334920600
  O         9.1550077178       -6.0193004175        6.8022492532
  O        -7.5779634957        7.0506054399        1.5408563400
  O         1.5109360789        8.0819314187       -4.0871214860
  O         8.0455057646        6.6181599435        3.2691606987
  O        -6.0357382191        6.8683310800        3.7099052181
  O         5.2425289337        5.8984086355       -5.3069361956
  O        -8.2466967618       -6.0811834365       -0.5856845277
  O         8.7899048666       -3.3444042888        6.0821670822
  O         9.1950031310       -2.5848273487       -2.1951209797
  O        -3.1912176968       -2.6495965218       -7.6859325646
  O         8.3803723296       -1.3779898824       -6.2653734737
  O        -4.8522484624       -6.2921356538        9.7096300838
  O        -7.4175472474       -1.8230252557        9.5979313618
  O        -6.4972069621        5.5476717726       -0.3786907568
  O        -0.2179851653       -7.7643471968        7.6752494646
  O        -6.5172942697        0.7024096398       -4.5794663902
  O        -1.8679431937        7.2432905265        6.3336367110
  O         8.2154589478       -5.4660402710       10.9066897486
  O        -8.1922749228       -6.9137571083        5.3612411689
  O         6.6601399994       -7.8023881410        3.9520999941
  O        -8.6722761705       -1.1660638471       -7.5727249227
  O         3.6649935196      -10.3273043130        5.2142863286
  O        -7.7147021819       -3.3670889192       -3.1685413857
  O        -8.8225452275        6.7070529209        3.8993977075
  O        -2.6411769088        5.8548215902       -7.2522246969
  O        -7.0492399859        0.6401189869       10.6391487537
  O        -5.2006748891       -8.0809814548        6.2204871123
  O        -8.9701655386       -8.2792962516        7.5571508928
  O         0.5734105308        6.4764667150       -1.9547994617
  O         3.4867026480        2.2519297884       -5.5915471609
  O        -7.0832030113       -7.8505402839        3.0579062276
  O        -3.8441655599       -7.5962105100       -7.7852217731
  O         6.8402604632       -9.4134207315       -2.9731353728
  O        -7.0927035552       -4.8669426195        9.4376765027
  O         9.0240347494        5.6509486921        8.3009794337
  O        -4.1213668083        1.4695602879       -5.7589379905
  O         4.8545413237       -5.7835216075       -3.2375403224
  O        -6.8409453117        5.7657187689       -5.0096881279
  O        -5.7085172247        2.8613516557       10.4098739477
  O        -1.8951802718        8.9215685069        8.2735276440
  O         5.7208483857        2.0493798625        7.0757186423
  O         4.5268725249        3.0963651212        8.9871199468
  O         9.5504503189        1.2962821457        9.7542258330
  O        -2.5310097519       -7.0119542474        9.0817943796
  O        -7.5046403220        7.0132539033       -7.1020450904
  O         4.8109542121       -0.4923063121       10.0735486611
  O         6.3027934312        8.0159932726        9.2360493152
  O        -0.1983236899        3.1161192795       10.6491689386
  O         5.9092131728       -7.6944738143        6.6697323243
  O         4.8413162096       -7.6075819924       -5.2214535695
  O        -3.9503077064        3.7544583688       -6.9722893565
  O         2.5253061006        7.4554116018        9.5896713113
  O         8.3369553977        2.4457898617       -7.4359470643
  O         0.5171551943        4.4679365894       -6.5647911461
  O        -8.7975943897       -2.5038451770       -5.3499488318
  O         9.3720167101        1.5888523993        4.8288683016
  O        -4.9026084240       -6.1465091897       -5.8342422166
  O         4.4998973274       -8.2509124350       -2.5655739323
  O        -8.3129557548        8.0739466417       -4.9475740535
  O        -2.2375567984        8.4396936801       10.9232045000
  O        -6.4524541975        6.9659407071        8.8321092631
  O         3.1306131734       -6.8409599591       10.3046771665
  O        -7.8892747208       -2.1751679899       -0.7552141526
  O        -6.3142649290       -5.8077870388        7.2474235204
  O         0.2884823102       -7.7161868183       -5.2664544140
  O        -6.9375997507       -4.6126779207       -5.3766739915
  O         6.7906622382       -0.0376203192        8.3531322338
  O        -9.1177860610        0.1477542049       -5.1805711084
  O         4.1690188866       -4.9333483758       -7.4779439432
  O        -9.7427109954       -5.0750311141        1.3119898135
  O        -8.1056993958        4.4490443671        1.4366760348
  O         4.4598507498        4.1910763067        6.6012946193
  O        -6.7539709715      -10.6368928790       -0.8836715691
  O        -6.8747507973       -9.7117647113        8.6212910088
  O         4.2633322936        6.7057439822        6.0416819544
  O         6.4466750535       -3.2263218380       -7.0577172977
  O         3.1372802028        2.6234808802       -8.2324515761
  O        -1.1587285426        4.9324412492        8.9066706866
  O         6.8530205493       -6.5206464991        8.7764651401
  O        -5.7934665905       -0.3990162638        7.8959691364
  O         9.7122254358        3.5449610334       -4.1016703793
  O        -5.9519509381       -5.9379045770        4.6411421100
  O        -7.4405666184      -10.4446868154        3.5607733165
  O         7.4524627087        0.1826864983        5.9661385913
  O         9.4925965139       -3.6780580698        3.5207743575
  O        -0.3550965688        6.9094026800       -7.2381133735
  O         7.3256912570       -9.0626384601        8.4568234460
  O        -7.6767497429        4.2623252625       -2.3645542506
  O         8.9688883251       -5.0908932438       -1.2084617654
  O         5.8623709278        5.5955871485       -2.5385406718
  O         9.0918920243       -6.6222775695       -6.1508880576
  O         5.9563969373       -4.4502058339       10.1249889773
  O         5.7457645780      -10.6071066928        6.8766972250
  O         8.8929772167        3.2555556077        1.1904714208
  O         8.1466600443       -4.2538018786        8.4947494813
  O        -4.8464639657       -2.4133739166        9.5771155072
  O         6.0948550996        1.8252192121       -6.1392958465
  O         6.3838354165        8.3553536616        1.9482890102
  O        -6.0044729981        8.6521906355       10.9214309759
  O         2.0064534422        6.9040191062       -6.3895945690
  O        -7.5373459279       -7.4080378895        9.6406644151
  O         7.2177092698       -2.3357468450        3.8989391753
  O         4.1062449935       -7.7445036073        4.6015586242
  O        -7.2536904842        4.6254687259        7.8116395052
  O        -8.2916976176        1.7702823364        0.4290912057
  O         4.7550194233       -8.3838235493        9.0150638263
  O         9.0608590354       -7.4651462872        0.0863822404
  O         8.8869120340       -8.2023943053        5.2293661721
  O         6.6606493148       -7.0655743319       -1.7631313102
  O         6.7246894966       -4.1824223418       -2.0931812039
  O        -0.2787226240      -10.0312977317        6.1851921114
  O         9.9251730674        5.6262986268       -5.7704073577
  O         7.2643108617       -1.2167396009       10.6609862721
  O         0.4261843645      -10.6024575115       10.7248059003
  O        -2.4451304607       -7.4063061153       -5.5580902170
  O        -2.3915968947        8.0118686598       -5.8756158389
  O        -3.5053443433        4.0263191731        9.6129222641
  O        -7.0862454600       -6.9160636370       -2.9394485810
  O         7.5951657205        5.1754253295       -4.4815013947
  O         2.8404328696       -9.4753164448       10.4545383679
  O        -1.0470755777       -9.2770929262       -6.8282453824
  O         6.5851269830        8.0296651276       -4.7673224127
  O         5.9296218609        7.9103075445        4.3944726641
  O        -0.6908739573       -8.3331954676       10.2127036105
  O        -8.4976940443        6.9611337779        7.0703309098
  O        -0.7554642670       -3.6198733370       10.7810211142
  O        -8.6269426348       -9.3634556516        0.7433167116
  O        -5.8449906132        3.3990994902       -4.5987283624
  O         8.2463222706        2.0130715723        7.5797360749
  O        -5.2898346493        5.2567392387       -2.7901973802
  O        -0.0654403093       -5.8249594324        9.3416270454
  O         8.2387894574      -10.0651528309        0.1410743036
  O         6.0700642751        7.3755967539       -0.4289646686
  O        -6.3039334573        9.2635766542       -3.4660575269
  O         8.8265804924        6.2019543092        5.8260485202
  O        -3.8258699306        6.4081382435        4.8422688453
  O        -4.2864063330        0.8187105807        6.0344546053
  O        -5.5700548854        8.2948407797       -5.9546059801
  O         8.9032277219       -9.9719535473       -4.6286622083
  O         7.3328640276        5.9976603365       10.3845251284
  O         2.0371097060       -9.5643570019       -5.8805477188
  O        -7.1288614639        6.9912685866       -2.5667641434
  O        -5.8726828153       -1.4015734289       -7.6262376601
  O         1.8364306889       -8.4828942833        6.0358534730
  O         6.5808107672       -6.6448561002       -7.0381037232
  O        -8.3812389285        1.7462981631       -2.9987623086
  O        -4.9819795198       -9.1289873519        3.8058072787
  O         8.7223836761       -6.1857435875        3.5861116154
  O         3.9843910241        8.2102319608       -5.4909640451
  O        -8.2391189352       -8.5616283249       -5.0000188356
  O         3.1239627747        0.1041276466       -7.2732806801
  O         6.6597088408        4.5479561123        8.2131280221
  O         5.6497283151       -0.8154791897       -6.6997789124
  O         2.4954099567       -6.8696216138       -6.5923097285
  O        10.2341850816        8.1996449423       -2.1745227054
  O        -8.4598678356        2.5001584670        2.9771137987
  O         4.9596593720       -8.5051338073       11.6994914215
  O        -6.6008787082        2.2852039431       -6.6586601943
  O         5.8874831068        7.6718962413       -7.4275949995
  O        -9.1787930315       -9.6639863127        9.7443854756
  O         4.1280475386       -2.4735942581       11.3063583413
  O        -8.0630037677       -5.4075553028        3.1069693981
  O        -3.8128402521        8.6000923790       -3.9675801709
  O         3.7466820761        5.2145452450       10.4136391814
  O        -6.3777339322       -3.0037253977        7.5054750330
  O        -5.2354850785        8.5316427219        5.7642043202
  O         7.3793826051        4.9202074111       -0.4220205920
  O        -6.1744924977        2.2319836085        7.0970422117
  O         0.1395899542        6.0214242407       -4.6788299856
  O         5.6065559359        3.5888918574       -7.8541909133
  O         5.4650317988        3.5128389362       -4.1338216848
  O         9.2664447566        3.3533920718       -1.5883524278
  O        -3.2133822604        5.1362980267        7.1728304463
  O        -1.4661769297       -9.4765516325       -4.3422138316
  O         1.4306015222       -3.6088959491        9.0228608455
  O         1.5179979159       -4.9985175304       11.2715276500
  O         8.1404472765        8.5963677282       11.1191045025
  O        -1.5353716560        2.5090511812       -6.5364168829
  O        -9.1371499247       -9.8298065897       -7.0191309957
  O        -3.0249510674       -9.6553996413        5.8985732045
  O        -8.1677962236       -0.7751643782       -2.9327716180
  O         9.3056366432        4.2682640307        4.1289009449
  O        -4.3850295283        8.6960620812        9.0036752090
  O        -3.3833353317        1.7340481548       -8.3647865576
  O        -1.6863210207        4.8156911877        5.0065892979
  O         1.1117103167        1.7960615949       -6.7828502950
  O         8.4689457046        8.2028801927        7.5811433604
  O        -2.7326660989       -5.2606331010       11.0472500338
  O         1.2275662527        5.1108278254        9.9014605381
  O        -6.7582415270       -6.1381416857       -7.6851332865
  O        -8.5437150849       -4.2672874643        7.3381439275
  O        -6.0221188962        6.2111600912        6.1972138733
  O        -3.6964754665       -5.8477388168        6.0006195396
  O        -4.1379229534        1.6964979131        8.5375026944
  O        -8.4804625879        2.9799444895       11.1368297930
  O         7.4405972570       -5.9584901678       -4.0547706727
  O         8.4034602539       -8.1816045959       11.1382280833
  O         8.6560093898        3.8222184714        9.9284224105
  O        -5.9656350043       -9.7824282809        1.4183263245
  O        -8.6314232669        2.5861760079        8.0087200298
  O         5.8437612239       -9.3294451391       -0.4251537433
  O         6.9224001845       -9.0066484938       -5.6958658240
  O         8.7860752189       -8.6213346519        2.4626573194
  O         2.2734894744        5.0367771491        5.2577630544
  O        -9.7896040672       -7.2794944951       -3.5064118561
  O        -6.5917684626       -8.0227677430       -0.5001615731
  O         9.6995225108        5.8035106896       -3.0920832931
  O        -9.5281224846        0.1553741084        7.1069293094
  O         2.5919661762       -7.4253141668       -4.0875243078
  O        -9.4891175371       -4.8574233604       -4.5350904431
  O         9.4853434061       -1.1813364493        4.8096132640
  O        -5.0479085293        6.2911806385       -7.7235932406
  O        -2.8875287919        6.5845401918        9.3393213180
  O        10.2459890798        6.0855482964       -0.4366171194
  O         1.4309343720       -9.9983998962        8.2063039251
  O        -8.2346913738       -9.1329266114       -2.4314790253
  O        -8.0356681470        3.2647205989        5.4218549636
  O        -1.3152934748        7.5843305336       -3.3053657497
  O        -4.7250024828       -8.7506812618       -5.3462152345
  O        -4.2466090894        5.6072725080       -5.1425328954
  O         8.0675550753        7.0623668978       -1.7759335135
  O         2.8162400884        5.6296332672        7.8631908459
 Si         2.9369605752       -8.9148642278        4.9373359002
 Si        -6.5262024580       -6.2312905008       10.0633629968
 Si        -4.0955768062        5.3444953347       -6.7599729078
 Si         6.3550826939       -0.0871446590        9.8954962241
 Si        -9.7394472085       -5.9953142019       -0.0172152778
 Si        -9.5253143057       -7.3609606699        6.2395011098
 Si         9.1870259472        5.9175800978        4.2153986811
 Si        -8.0919365015        6.6006703686       -5.5869645576
 Si         3.9637897289       -8.2539824614       10.4201233667
 Si        -3.1456085373        2.3139110904       -6.8201889381
 Si        -9.0428656044       -9.8934451989       -5.3914972565
 Si         5.9985110720        5.0726821578       -4.1243797811
 Si         3.3486572608        5.4038875763        6.4064742091
 Si        -7.3038094693       -0.9397526112       11.0068377200
 Si         8.1673263213       -6.7084083114       -7.4760389850
 Si         6.1664871301       -7.8693479891        8.2274836142
 Si        -7.4992669191        8.6806131714       -2.4092358035
 Si        -5.2379720214       -6.3543240235        6.0820295326
 Si         4.2795065106        3.6010237910       10.5272921197
 Si        -4.7709484167       -2.5692070717       11.2881633384
 Si        -7.0619401803        6.2369608157        7.4797575024
 Si         2.3469227340        8.3277737258       -5.4698881519
 Si        -5.5156847596        5.0039106236       -4.3546014159
 Si         5.1990345139       -3.7233174061       -8.0187399107
 Si         6.9625240027      -10.5874992247        8.0019777943
 Si        -7.3223457835       -6.5415812146        4.0462958202
 Si         4.9919830746        2.1792261200       -4.9344519982
 Si        -1.9657212137        7.2960181118       -7.1742434136
 Si        -8.2456024569       -3.8925832630       -4.6656847049
 Si         5.3547235286        3.5024683002        7.6699738227
 Si         4.1640501578       -7.2068652789       -3.7790111411
 Si         7.0008761671        1.1141588774        7.2127314178
 Si        -8.9070280088        3.2691457377       -2.7172738299
 Si         9.2067036957       -4.4102264801        7.2121910990
 Si        -6.9335574958       -6.7153578771       -1.3644274299
 Si        -2.0266912675       -3.9462504585       -7.6981614090
 Si        -6.7091536877        5.5379403145       -2.0160184791
 Si         9.3696746438        2.6016148293       10.6863091920
 Si        -8.1686753527       -8.7196526336        8.8593421601
 Si        -2.9124567536        8.1784807382        9.2794188008
 Si         0.5998308809       -4.4593593677       10.0788440180
 Si         8.6584670257       -2.6450337404        4.5623904091
 Si        -5.1213146601        1.0425043943        7.4065997249
 Si        -6.9996435297       -9.4670364253        0.1491581889
 Si         2.8545107627       -5.8406021543       -7.7835777054
 Si        -6.0141308579        8.5258981952        9.2988512110
 Si        -8.5333063303       -2.1970549743       -2.2794727065
 Si         5.4321452204        7.4754469485       -5.7652246603
 Si        -8.3434574080       -7.9880047253       -3.4656040186
 Si        -7.5410925664        7.3533772507        3.1608911830
 Si        -5.2572753354        7.0663425943        5.1262093671
 Si         0.3685446787        7.0772610582       -3.4286164016
 Si         6.0017833099       -8.5207992174       -1.8684815837
 Si         7.8825973842        4.9887600837        9.1774012920
 Si         8.9466631713       -6.1065980276       -4.5466923306
 Si         7.3276133436       -5.1340339176        9.5437965370
 Si        -2.2690107842        8.4803550329       -4.2842169933
 Si        -4.6176082727       -9.3470822645        5.4378255667
 Si        -0.7805185116       -9.6586206507       11.0498506526
 Si        -6.9886536303        2.2702992608       -8.2116376014
 Si         1.8804318435       -7.8926010729       -5.5086321563
 Si        -6.0129145364        7.5414111988       -7.2788141835
 Si         9.1950261019        5.0371450246       -4.4206515816
 Si        -7.4780209829        3.2130561133        7.0130529338
 Si        -0.8723096021       -7.1577339460        9.0494297399
 Si         9.1011790850        0.1944187856        5.6236965355
 Si         9.2085248208       -8.9390037718        0.8647034404
 Si        -5.2147229973        9.1783118668       -4.6274548838
 Si         0.1153538580        4.0643336970        9.3827668904
 Si        -2.7640997391        5.1088646230        8.7460183480
 Si         6.7110561000        2.3633446362       -7.5765708040
 Si         5.8298750108       -7.9772179141       -6.4399332079
 Si         2.7877752753        1.6545332643       -6.9582739326
 Si        -1.1754426682       -8.4231458189       -5.4801168347
 Si        -5.7185458636        1.9384164960       -5.3617093373
 Si         6.8394216622        6.2111337963       -1.3225102546
 Si         8.3330680849       -7.7585022506        3.7292970369
 Si         6.9158535192        7.5449137206       10.7352820426
 Si        -6.0126208184       -5.2034629979       -6.5408833446
 Si        -9.4323848363       -1.1537469563       -6.1323572456
 Si         0.6900257554       -9.0464911388        7.0946055573
 Si         8.1883295223       -3.6278939683       -1.3428317789
 Si        -4.2029462905        2.5781344398        9.8699716640
 Si         4.4040093657       -0.8495931124       -7.7933590119
 Si         0.6096061953        6.0478498982       -6.2474859697
 Si        -7.0410185013       -4.5094560890        7.8566817004
 Si        -2.5990879356        5.8372719652        5.8333187703
 Si         4.9360638042        8.1330959316        5.6512285008
 Si        -4.0451063105       -7.4740281840       -6.0701900372
 Si         7.3134382069       -9.9413482977       -4.4102893068
 Si         1.8396244419        8.9136554522        9.7117303953
 Si         6.6671538726        8.7517333015        0.3212549927
 Si         6.9707602892       -1.6655824831       -7.1439895517
 Si        -0.0503829547        3.0415571898       -7.1320828373
 Si        -9.6692115246       -5.1077000505        2.9181682727
 Si        -3.3991209567       -6.5754896365       10.3816812467
 Si        -8.0851020038        0.4534390236       -3.9827082329
 Si        -7.8758174043        5.7162230828        0.5052242510
 Si        -6.3478326263       -9.2558825756        2.9790365482
 Si         6.4584796653        7.0637698320        3.0487935549
 Si        -1.8248441160        8.8879245380        6.5556935884
 Si         8.2134540196        3.4901571624       -0.3323061842
 Si         5.6010631202       -7.1951240819        5.1104611147
 Si         9.3135219635       -9.6154786186       11.0894216751
 Si        -9.7398990792        1.4628189776        8.1037458871
 Si        -9.2008862088        2.8984804170        4.3585551195
 Si        -6.0418427763       -1.8152752533        8.6401069072
 Si         9.2809645583        6.8114717114        7.1496021157
 Si         6.4628787881       -5.7216939942       -2.7579710992
 Si         9.6597730920        6.8369759107       -1.8250015791
 Si        -8.8459741955        2.9234642838        1.3969358487
 Si         2.6287182766        5.8703726731        9.4871291213
 Se        -2.4963780109       -2.4180230521        3.9237220545
 Se        -1.3361803628       -4.3495738736       -5.4732146384
 Se        -5.1491914898       -5.5053855533       -0.6641083474
 Se        -2.1173372995       -6.8587128849        2.2575157703
 Se         1.6285262035       -6.3670322638       -0.6440773223
 Se         1.6778975068       -8.9467865715        2.9612072900
 Se        -6.1917803234       -1.9109832772        2.2792203774
 Se        -4.3519554304       -2.0343858608       -4.3681840899
 Se        -4.6914837334        0.4683941345       -0.3220747510
 Se        -1.9144393268       -1.3192193301        8.5217811415
 Se         3.8135151965       -1.7596378573       -0.7134775840
 Se        -2.2251407721       -3.3379990266       -0.4107864889
 Se         0.9290046779       -2.6086510682        1.5834226469
 Se         0.6068331468       -5.1351963136        5.4577990467
 Se         5.2073039940       -5.8327350441        0.8808271769
 Se         5.6654047536       -4.9328031420        5.1840206706
 Se        -2.3184291977        3.6068099854       -1.9444764152
 Se        -4.1218823699        3.8380806158        2.5830518653
 Se        -0.9092265211        1.0946174588        4.7485484702
 Se        -0.0627018711       -0.1084066806       -2.9382205914
 Se        -1.0035005648        1.1092932421        0.6674838593
 Se         0.6681976373        4.2878364827        2.3839200785
 Se         0.9669235554        2.8253176202        7.7755237084
 Se         4.9724465468        0.3344972508       -3.5996935289
 Se         3.3366881943        1.0945554677        2.3670723652
 Se         1.6954629582       -1.0133673987        5.7026029581
 Se         3.7459887754       -1.9015546613        6.4262565292
 Se         7.7583991010       -2.4719531296        0.6133817919
 Se        -2.1572859376        7.2727876454        1.2109342812
 Se         2.6835314600        7.6278974979        0.9385257443
 Se         2.5494198945        3.2936564179       -1.6328524576
 Se         5.4425888147        5.0876711405        2.6506671178
 Se         6.6155751511        1.9524705623       -1.1084541638
 Cd        -6.6875722765       -3.6366444082        0.4346090000
 Cd        -4.3246169843       -3.5828247879       -2.2674335303
 Cd        -2.8988836980       -4.9585359565        4.0788043350
 Cd        -3.1804428822       -1.3126527802        6.1554571885
 Cd         3.4033933719       -4.4051630353       -0.4901995855
 Cd        -0.4489784221       -5.1374983916        0.7873505822
 Cd        -7.2183674942       -0.0672840179        0.5020518409
 Cd         0.7676258667        1.4564613560        2.3696338445
 Cd        -3.6823556288       -1.8412375304        1.2004579610
 Cd        -0.9612098201        0.9407651587        7.6007040611
 Cd        -1.5206172970       -2.0874757584       -4.1371545813
 Cd         5.1619236097       -1.6106418164        4.1821903954
 Cd         0.1929330517       -6.7602044336        3.5350066268
 Cd         3.1540083358       -4.4365213174        5.8108864562
 Cd         3.3937331063       -1.5388850044        1.9461662422
 Cd         3.1233695403       -7.4737599578        1.2255002212
 Cd        -1.6337939276        6.0122173074       -1.1825740120
 Cd        -3.2838584490        2.6660742176        0.3923896114
 Cd        -3.3140286915        2.0540542035        4.1982552604
 Cd        -4.7272580840       -0.2798297053       -2.6159629226
 Cd         0.0155112899        2.4670985671       -1.5190723250
 Cd        -0.3777052725       -1.2787172032       -0.2908919102
 Cd         0.4478859849       -2.2087299371        7.7448803506
 Cd         2.6722613010       -0.2551936103       -2.6342974761
 Cd         6.5728891200       -0.6489108093       -0.9206880005
 Cd         0.3533823911        3.6292528636        5.1183820418
 Cd         5.6160795062       -3.8566924520        2.3400746406
 Cd         0.1562833477       -2.6956824725        4.0650253316
 Cd         2.0883861314        5.4177979119       -0.4500175004
 Cd         0.2403712733        8.0190508697        1.4748970448
 Cd         2.9851332387        5.4867941673        3.1325116391
 Cd        -1.8166776474        5.0308890857        2.7349159642
 Cd         4.3001810863        2.1700862763        0.2446759688
