402
 i =     8500, time =    17000.000, E =     -5882.4120833441
  O         6.5127803733        2.6593728242       10.2175589148
  O        -5.3697732399       -2.6922109372       -7.9036852133
  O         9.0499974794       -4.7652274261        6.4372412339
  O        -7.5484365291        8.2648303223        1.1648332563
  O         1.5655127810        9.4045304384       -4.2075250444
  O         8.1585860312        7.9960403145        2.7142705571
  O        -5.8965985622        8.4828097595        3.2879871539
  O         5.4152638095        7.1453795318       -5.5114768726
  O        -8.0369242700       -4.5382671465       -1.1167660298
  O         8.8471404322       -2.0693702812        5.7766417069
  O         9.2682366434       -1.1826522404       -2.8085317993
  O        -3.1063272954       -1.2899031946       -7.8840401870
  O         8.4852712072        0.0065334351       -6.8131517478
  O        -4.9834935774       -5.0105332957        9.4523421033
  O        -7.1913922436       -0.1058955534        9.2151876130
  O        -6.2499216875        6.8508072420       -0.7519805736
  O         0.0479756113       -6.3732729666        7.6344137205
  O        -6.3163457016        2.1073305810       -5.0467258847
  O        -1.6196011350        8.7585970920        5.9602768449
  O         8.3589393449       -4.2754865246       10.4035982201
  O        -8.1898936833       -5.3824209891        5.1660996649
  O         6.7557064888       -6.3914132410        3.6277351639
  O        -8.5010198316        0.1415042141       -7.9712921745
  O         3.8271818185       -8.9703487195        5.0654191027
  O        -7.7366306737       -2.0612414322       -3.5676469174
  O        -8.5443692588        7.8388003867        3.6151312629
  O        -2.5430219588        7.2021639959       -7.8275679313
  O        -6.8819135163        2.0978648312       10.5612073266
  O        -5.2935703574       -6.6017211320        5.8518437765
  O        -9.0157881984       -7.0345332012        7.2097022141
  O         0.4324558931        7.6033658324       -2.3011330968
  O         3.5189669336        3.5104787387       -5.7319526172
  O        -7.1531998879       -6.4305710511        2.8575548074
  O        -3.7560988840       -6.3709237734       -8.1194474744
  O         7.0501101110       -8.1285525961       -3.4094433195
  O        -7.1000664017       -3.5024761868        9.3160889929
  O         8.5015037633        7.0363665841        7.5309890310
  O        -3.9193945861        2.8983177103       -6.3421573991
  O         4.9229665588       -4.4282003739       -3.7508896327
  O        -6.7182541195        6.8719310003       -5.3739174661
  O        -5.8926775660        4.3326081874        9.6732288432
  O        -2.0795939412       10.5469902198        7.8567150576
  O         5.5966788019        3.4094395751        6.6081769026
  O         4.3813873440        4.2485627928        8.8270677429
  O         9.6033692876        2.7206548318        9.4380736686
  O        -2.4244606689       -5.5249984460        8.8866668814
  O        -7.5125855254        8.1400080085       -7.6228919912
  O         4.6307178779        0.8675749278        9.8711078853
  O         6.2778773770        9.5862802043        9.0377992973
  O        -0.0387398101        4.4880797238       10.2992906474
  O         6.0442616651       -6.4449285882        6.3155533661
  O         4.8841524551       -6.3863771346       -5.5017182793
  O        -4.0801474054        5.2028895070       -7.5743689748
  O         2.6766879190        8.8555087741        9.7812415660
  O         8.3757653521        3.8955289933       -7.9001209457
  O         0.6703750203        5.8545615513       -7.1005881607
  O        -8.6811700328       -1.2921414575       -5.8828929049
  O         9.5349888117        2.8987001104        4.6745164318
  O        -4.7175395536       -4.7430485151       -6.2042249167
  O         4.6660874471       -6.9812976900       -2.9372926206
  O        -8.2097439175        9.2684625931       -5.4224069136
  O        -1.8881931070        9.8070608037       10.5263521413
  O        -6.1834057681        8.3541952275        8.1230720889
  O         3.4494544089       -5.3348196940       10.0970555177
  O        -7.7780344649       -0.7602964089       -1.2288836306
  O        -6.1683041853       -4.3063973947        6.9896223343
  O         0.2857318432       -6.3166053880       -5.3076721738
  O        -6.8272332846       -3.1586014218       -5.7620439871
  O         6.3320200492        1.2894664454        7.9170417604
  O        -8.9699987679        1.3113991427       -5.5516576609
  O         4.3147707272       -3.6629092161       -7.3662845713
  O        -9.7496768054       -3.6777909914        0.8206209128
  O        -7.9996601394        5.7189228207        0.9438887214
  O         4.2750862482        5.4899724777        6.4758827526
  O        -6.4725967504       -9.1425129790       -1.2028001564
  O        -6.8407561597       -8.3640668447        7.9630161661
  O         4.7928760368        7.8814066256        5.7212104749
  O         6.5533225208       -1.8689197819       -7.2184841421
  O         3.2645693641        3.9994940849       -8.3220748459
  O        -1.0614372979        5.9274863506        8.4879221231
  O         6.7323840410       -5.0322296019        8.5303653342
  O        -5.4378958068        0.8421129916        7.4882558938
  O        10.0806747919        4.8472126663       -4.5174453806
  O        -5.9873746634       -4.4503700911        4.3636807228
  O        -7.3983413388       -9.0876769264        3.0361605272
  O         7.2888137279        1.5796878654        5.5504880698
  O         9.4751785868       -2.1552448335        3.1232123089
  O        -0.3230792441        8.3544734027       -7.3590129573
  O         7.3108860296       -7.6561757143        8.2232968473
  O        -7.5414414996        5.6189119923       -2.5599806699
  O         9.0850921327       -3.6111373843       -1.6896263924
  O         6.2522051627        6.9189206050       -2.9503968093
  O         9.2530865496       -5.3300354806       -6.5863794194
  O         6.0353955265       -2.9199608080        9.8584664045
  O         6.1113912314       -9.1981662952        6.3733757838
  O         9.0020618094        4.5053290609        0.6926549445
  O         8.1121134880       -2.9276529667        8.1363300196
  O        -4.7229938420       -1.1446107624        9.2115302047
  O         6.1643105187        3.4856306597       -6.5705803065
  O         6.6190381091        9.8320549627        1.4179589478
  O        -6.4261133345        9.8131392731       10.3517679346
  O         2.0025931355        8.3046816012       -6.4243868817
  O        -7.5180704554       -6.1343993543        9.2595537391
  O         7.1255754043       -1.1846233220        3.9365643563
  O         4.1937701243       -6.4173507785        4.3757330407
  O        -6.9861393481        5.8609865597        7.3136617433
  O        -8.2014321859        3.1862189415        0.0011897321
  O         4.8367826851       -6.8422796771        8.6357441387
  O         9.0723314456       -6.0185088516       -0.3391959984
  O         9.0799242965       -6.7973615885        4.6954237418
  O         6.8058668453       -5.7636358470       -2.3975052225
  O         6.9350676884       -2.8254100134       -2.6906591529
  O        -0.2328906398       -8.4634298678        6.0141053757
  O        10.0693975289        6.9110103630       -6.1514628728
  O         7.2138241561        0.0180304925       10.2032264315
  O         0.5693783714       -9.2295894595       10.3631437358
  O        -2.3957026871       -6.0313516098       -5.9875162195
  O        -2.3931520180        9.4261900835       -6.2366075045
  O        -3.7016983486        5.5959202813        9.0703502214
  O        -7.0554285043       -5.5193949577       -3.4779114630
  O         7.7956189419        5.9949727978       -4.9935915512
  O         2.9129804958       -7.9183816719       10.0950445088
  O        -0.8683910237       -7.9469760888       -6.9279310687
  O         6.6099520332        9.3710168174       -5.1627872241
  O         6.0727516648        9.3737772848        3.9631218878
  O        -0.6875804271       -6.9774240342       10.0426168794
  O        -8.5026061580        8.0411496550        6.8792886127
  O        -0.8030428959       -2.4658052890       10.7873626600
  O        -8.5122224685       -7.8716372301        0.1349620465
  O        -5.1878338356        4.5734746925       -4.7456894612
  O         8.1275562461        3.3046237573        7.4438201605
  O        -5.1913939763        6.4543665333       -3.2207214883
  O         0.0292342422       -4.5939691004        9.6177294359
  O         8.4298185455       -8.6554809832       -0.1838397528
  O         6.2783323344        8.6620656243       -0.7139361154
  O        -6.2023840066       10.5210729848       -4.0248716095
  O         8.8596869712        7.9379303577        5.1671839270
  O        -3.7703928998        8.0294452456        4.6866707785
  O        -4.1736159498        2.1001631412        5.4768555297
  O        -5.4396603564        9.6497457108       -6.4410079318
  O         9.0014751506       -8.9316685954       -5.1207628050
  O         7.4366819627        7.4550570259        9.9463496130
  O         2.0551874966       -8.2363092094       -6.0218047826
  O        -6.7750760130        8.3832254389       -3.0161250283
  O        -5.6199275000       -0.0202871584       -7.9839036836
  O         2.1385096470       -7.0807964617        6.0313819820
  O         6.6716289609       -5.3645281226       -7.3009339585
  O        -8.1811845358        3.0299236309       -3.3184596442
  O        -4.9591798448       -7.8284416191        3.4693131536
  O         8.7774891321       -4.6179084016        3.1452989088
  O         4.1261386286        9.6392836929       -5.7610822763
  O        -8.0954843556       -7.4560833912       -5.3938124874
  O         3.0824886439        1.3582861408       -7.4053735916
  O         6.4687251549        5.5448777861        8.1636943365
  O         5.8377940666        0.7138370087       -7.1592092237
  O         2.4161478219       -5.6484754442       -6.8072575483
  O        10.6095063647        9.5032484029       -2.3558219754
  O        -8.6220012428        3.9079488930        2.6206718480
  O         5.0531818470       -7.2267588844       11.3246553835
  O        -6.3643763374        3.9168791076       -7.0804058003
  O         5.8530462878        8.9050857236       -7.7657338340
  O        -9.1612601116       -8.3114631522        9.4030635795
  O         4.2173978157       -1.2163663263       11.2892191172
  O        -8.0753039644       -3.9942817604        2.7752305437
  O        -3.7671605182        9.8615646988       -4.1976703904
  O         3.7601320084        6.5344614956       10.0886973818
  O        -6.4716471870       -1.6486126140        7.2100268715
  O        -5.3224589907       10.0561643603        5.4360007413
  O         7.7653753597        6.2057725925       -0.9683162859
  O        -6.2414150044        3.3586377576        6.4993579369
  O         0.3658755324        7.1397078277       -4.9426988384
  O         5.8658177158        5.0870463378       -8.5192518544
  O         5.5338019362        4.7460989885       -4.3521460695
  O         9.4727464242        4.6648498655       -1.9760170451
  O        -2.8945348768        6.4186108952        6.5580314439
  O        -1.6810136947       -7.9765974169       -4.4097744478
  O         1.0521330670       -2.2510006137        8.8569675093
  O         1.8048682345       -3.4423332595       11.1610601343
  O         8.1726850858        9.9692378500       10.8129183522
  O        -1.5309856533        4.0230530269       -7.0348920504
  O        -9.0791914644       -8.6896807612       -7.4571467973
  O        -2.9444110737       -8.1490884736        5.3794696962
  O        -7.9078355866        0.4836954508       -3.4505864921
  O         9.1668094447        5.5893448132        3.8518746072
  O        -4.3104228537       10.0648747558        8.8970359175
  O        -3.3552633157        3.2695225224       -8.9427672257
  O        -1.3683526415        6.6728423970        4.3306807495
  O         1.1234315547        3.2107415922       -6.9424300265
  O         8.5406179052        9.5583243178        7.2865455875
  O        -2.9542842716       -3.8797087683       10.9562051736
  O         1.1592544581        6.7972379712        9.4639575336
  O        -6.7306048360       -4.9060064016       -7.9241132346
  O        -8.6054472935       -3.1512395212        7.3904951957
  O        -6.2487495763        7.5913311523        5.6016491806
  O        -3.7613410218       -4.2759724004        5.7648880734
  O        -4.1650571643        3.0871720850        8.0294238105
  O        -8.3744808853        4.5240607302       10.7605423092
  O         7.5586977118       -4.5255799699       -4.5523675673
  O         8.6174079235       -6.8441662739       10.8019177026
  O         8.8109580334        5.2150640850        9.4097048165
  O        -6.0021161331       -7.9831662657        1.0931754370
  O        -8.7054421117        3.9713789537        7.4945881566
  O         6.1740729311       -8.0594280651       -0.9315702841
  O         7.0359986197       -7.7128059633       -6.1980602130
  O         8.8223855556       -7.0133598483        1.9732416826
  O         2.3368251463        6.9314903313        5.0405341442
  O        -9.5858025676       -5.9623361054       -4.0530016657
  O        -6.3523039466       -6.4727201473       -0.9776137415
  O         9.7325964833        7.2118257533       -3.5823198755
  O        -9.6430450884        1.4621585682        6.8078652202
  O         2.6640228618       -6.1218530118       -4.3372866528
  O        -9.4453438385       -3.4783923513       -4.9579476338
  O         9.2980244629        0.2192191936        4.3944168234
  O        -4.9318462729        7.7048640131       -8.1200625720
  O        -2.7278738464        8.0142198960        8.7217391974
  O        10.4534410179        7.2917937345       -0.8754776868
  O         1.4436794197       -8.7844073809        7.9746003367
  O        -8.1108792218       -7.8053669454       -2.7711267008
  O        -7.9375953519        4.7137597933        5.1141672785
  O        -1.2253774786        8.8150504204       -3.8557440114
  O        -4.6682134079       -7.3777283692       -5.6929980601
  O        -4.1105340692        6.9469293334       -5.6187374692
  O         8.2862244001        8.4997480690       -1.9495082409
  O         2.8934655763        7.3147381810        7.5918681794
 Si         3.0969921179       -7.5087160492        4.7549744898
 Si        -6.5571706806       -4.9543323242        9.8144677708
 Si        -3.9634231827        6.7884890675       -7.2242617248
 Si         6.1959309539        1.1991710987        9.5327062847
 Si        -9.5832855736       -4.5469553494       -0.5796536124
 Si        -9.4548864233       -6.0391086220        5.9368032102
 Si         9.2471110616        7.2426437896        3.8281719852
 Si        -7.9475351860        7.8260765649       -6.0797820022
 Si         4.1145330919       -6.8270132745       10.0778870797
 Si        -3.1253191640        3.8370326797       -7.4393679438
 Si        -8.9514938059       -8.7623505049       -5.8439559155
 Si         6.2452991440        6.2572622180       -4.4521805038
 Si         3.5443186246        6.9029583599        6.0869785515
 Si        -7.0865486703        0.4750297055       10.6877685274
 Si         8.2548840442       -5.4645446025       -7.8412155966
 Si         6.2822682916       -6.4335615497        7.9216869252
 Si        -7.2275732714       10.0184967339       -2.7032698598
 Si        -5.2076336977       -4.9076569396        5.8516243778
 Si         4.3099233375        4.9868608372       10.2277011213
 Si        -4.6980254600       -1.3052384788       10.9186337939
 Si        -7.0055196663        7.4027242253        6.9954131551
 Si         2.4718294029        9.6251422254       -5.6247100355
 Si        -5.3302989025        6.1921990238       -4.7659604500
 Si         5.3298671430       -2.4688169255       -8.0656817595
 Si         7.0407747352       -9.1602222977        7.7142271064
 Si        -7.3528459055       -5.0485411182        3.7761216690
 Si         5.1413614770        3.4408904200       -5.2645943279
 Si        -1.8273756297        8.6595950561       -7.5238123537
 Si        -8.1262007921       -2.5288806749       -5.0330038732
 Si         5.2338733836        4.7369820336        7.5325306389
 Si         4.2568098243       -5.9274609838       -4.0892952693
 Si         6.8767886380        2.4670722071        6.9230448082
 Si        -8.6776933960        4.5624139745       -3.0509977193
 Si         9.2517927530       -3.2549324796        6.8662844837
 Si        -6.8180227509       -5.2620233987       -1.9393354572
 Si        -2.1145711876       -2.6561740911       -7.6610607236
 Si        -6.5218662732        6.9074057019       -2.3511005208
 Si         9.5077890838        4.1194352486       10.2954919439
 Si        -8.1049462654       -7.4451901166        8.4691082605
 Si        -2.7845741457        9.6109882538        8.9557259631
 Si         0.6139339958       -3.1028141471       10.0851530126
 Si         8.6906206806       -1.3023863395        4.2712050303
 Si        -5.0169494774        2.2850468562        6.8409424833
 Si        -6.9285780808       -7.8925172268       -0.2846748930
 Si         2.9797626700       -4.5202884826       -7.8880275177
 Si        -5.9900995037        9.8141979532        8.8351172361
 Si        -8.4902729716       -0.8551476921       -2.6520746713
 Si         5.4914694662        8.7545553952       -6.0917459523
 Si        -8.1526397344       -6.7299113609       -3.9181309605
 Si        -7.4236646744        8.7137310739        2.7189453174
 Si        -5.3245809495        8.5617119785        4.7334741958
 Si         0.3676704902        8.3075762119       -3.7677202551
 Si         6.1547918048       -7.2153033756       -2.3669251179
 Si         7.7824793178        6.3416575201        8.7759898655
 Si         9.0988382330       -4.8248480383       -5.0452529785
 Si         7.3765104471       -3.7838457243        9.2651498271
 Si        -2.2425516744        9.8287691686       -4.6299971104
 Si        -4.6273565202       -7.9159738110        5.0641841567
 Si        -0.6256568169       -8.2927091552       10.8980490700
 Si        -6.8738866825        3.7400117389       -8.5727388982
 Si         1.8797206222       -6.6500790815       -5.6843472786
 Si        -6.0551186767        8.8733391821       -7.7729753563
 Si         9.3645476233        6.2181917386       -4.8497824851
 Si        -7.3727630311        4.4504452772        6.6255180944
 Si        -0.7787382211       -5.8202847349        8.8992433855
 Si         8.9935497845        1.4976891515        5.3212250559
 Si         9.3726252876       -7.4694548698        0.4496104303
 Si        -5.0333807836       10.5206361348       -5.0938224371
 Si         0.3745684658        5.4735306292        8.9946327311
 Si        -2.6429152951        6.4527863061        8.1866663437
 Si         6.7472536242        3.8362648608       -8.0475071783
 Si         5.8849506996       -6.6805560739       -6.7707469002
 Si         2.8072343644        2.9962567786       -7.1694695882
 Si        -1.1655323465       -6.9736408412       -5.6313114879
 Si        -5.4555868245        3.3344055949       -5.8084228842
 Si         7.0317313940        7.4599591535       -1.6035334478
 Si         8.3653525156       -6.2474236978        3.3397037094
 Si         6.9414538110        8.9541263848       10.4070771258
 Si        -5.9701685014       -3.8836323108       -6.9501891208
 Si        -9.2966569044        0.0463115457       -6.6006318370
 Si         0.9011081445       -7.7057529268        6.9179978025
 Si         8.2275430561       -2.1907859880       -1.9076317723
 Si        -4.2728466962        4.0800193369        9.3260353960
 Si         4.3998289259        0.3922505083       -7.9560952622
 Si         0.6717475140        7.3245250956       -6.4949297271
 Si        -7.0276082262       -3.1465265713        7.6994019750
 Si        -2.4000815102        7.4605277738        5.3436572511
 Si         5.1845183855        9.4622257676        5.2704339231
 Si        -3.9432415402       -6.1375319318       -6.5423247793
 Si         7.4014499342       -8.6355820215       -4.9050374689
 Si         1.9545989256       10.3046374385        9.5047024321
 Si         6.9196330087       10.0747781950       -0.1860763955
 Si         7.0905701222       -0.2989901356       -7.5246446668
 Si         0.0231043638        4.3792678027       -7.4640504373
 Si        -9.5812069435       -3.5985971565        2.4207644460
 Si        -3.4709023953       -5.2074441461       10.0866715058
 Si        -7.9192658859        1.7777555020       -4.3629266456
 Si        -7.6586853213        7.0381644598        0.1288803067
 Si        -6.3906513279       -7.8013134822        2.6831653569
 Si         6.5933527283        8.6365124119        2.5598716620
 Si        -1.7435336939       10.3929641163        6.2287772591
 Si         8.3575528290        4.7288809127       -0.7842879178
 Si         5.6458223238       -5.8556605387        4.8072750690
 Si         9.3378722126       -8.2922591446       10.7675973137
 Si        -9.7309106349        2.7673109863        7.7867918016
 Si        -9.1460874288        4.2886370099        4.0820147661
 Si        -5.9048669071       -0.5345197365        8.2556955035
 Si         9.2230978058        8.2286598429        6.7233105609
 Si         6.5357488335       -4.3289755129       -3.2990155972
 Si         9.8365353642        8.0713449683       -2.2082523408
 Si        -8.7334227835        4.2638094930        1.0171477555
 Si         2.6700997184        7.3623253879        9.1803476401
 Se        -2.4736913847       -1.0868220680        3.4209188789
 Se        -1.4611703256       -3.1229894931       -5.5088421359
 Se        -4.9653839081       -3.8023476272       -1.6951802108
 Se        -1.9427097028       -5.1389016941        2.0442491166
 Se         1.6663944912       -4.5832278653       -0.9790598395
 Se         1.7339771238       -7.3854077729        2.7508993661
 Se        -6.1108696132       -0.6580376661        1.8149466884
 Se        -3.8755974985       -0.4900435207       -4.9351179713
 Se        -4.5876425215        1.7139579155       -0.6192345879
 Se        -1.9053903315        0.3672535826        8.0193069427
 Se         3.5112749883        0.0429095947       -0.7643597607
 Se        -1.7541275143       -1.5666304229       -1.0121475210
 Se         1.1235954059       -1.7285558453        1.6870398885
 Se         0.4881745062       -3.6128772147        5.5966168055
 Se         5.4784986548       -4.2633374041        0.6560974915
 Se         5.4913506879       -3.5629568402        5.1526275860
 Se        -2.2765089560        4.7972952214       -2.3566566640
 Se        -4.2593799164        5.0593880973        2.1487519605
 Se        -0.6393729977        2.6377779955        4.4810154660
 Se         0.3373413866        1.1790842971       -3.2297929301
 Se        -0.8284232135        2.3039603728        0.8086218009
 Se         0.5702292313        5.8066325091        1.9573562483
 Se         1.4565904780        4.2675305975        7.3609432624
 Se         5.3800855054        1.5791180366       -3.9856264613
 Se         3.5728249005        2.7595920471        2.5882360163
 Se         1.5832502592        0.5397103952        5.6241754870
 Se         3.6779132153       -0.4425063671        6.4212696919
 Se         7.8959832579       -1.0105161869       -0.0734718110
 Se        -2.3616770229        8.7225890738        0.4773542539
 Se         2.6769008076        9.0862330719        0.3221675654
 Se         2.5980565455        4.4804309852       -1.7649584846
 Se         5.3465852633        6.6952034857        2.2092660278
 Se         6.5050324111        3.4016617843       -1.1490025712
 Cd        -6.1303799051       -1.9293490541       -0.4023504728
 Cd        -3.9761028368       -3.1090946400       -4.0514923604
 Cd        -2.9978494736       -3.5834208427        3.9010739126
 Cd        -2.7761110023        0.3609767971        5.6070632665
 Cd         3.4436374906       -2.6283065177       -0.3433581639
 Cd        -0.5687213372       -3.6155298522        0.2838136189
 Cd        -7.2837660790        1.2211407203        0.2048411491
 Cd         1.0798549342        3.3437695472        2.3639457329
 Cd        -3.4419974550       -0.5136928377        0.8629782501
 Cd        -0.0080890204        2.0114494871        7.2663659545
 Cd        -1.3352734805       -0.5756768368       -4.2018255153
 Cd         5.1656683071        0.0686223349        4.2448513500
 Cd         0.3502368769       -5.1401964042        3.2781622564
 Cd         3.0107313950       -3.0717929271        5.9302086118
 Cd         3.3091715391       -0.0347016742        2.0842372080
 Cd         3.1702715945       -5.6121678271        1.0703956429
 Cd        -1.5478630907        7.0705093654       -1.4700099711
 Cd        -3.3047162120        3.9550913784       -0.1092856408
 Cd        -3.0368564536        3.4398263604        3.8729357010
 Cd        -4.3538408577        0.8883241756       -2.9168444974
 Cd        -0.0330993735        3.5712629091       -1.5401095348
 Cd         0.2509275368        0.1610122752       -0.2990400296
 Cd        -0.0321838232       -1.2448000092        7.2459503030
 Cd         2.9273539309        1.2321480186       -3.3051940765
 Cd         6.2880228618        0.7430970122       -1.0755637908
 Cd         0.4058523198        5.4192013760        4.9747101832
 Cd         5.6904074884       -2.0034510743        2.0888108651
 Cd         0.1681963105       -1.2810413175        4.0530744979
 Cd         2.3290050440        6.9194607010       -0.8650000752
 Cd         0.1825342256        9.2819983699        0.4697032932
 Cd         2.9301168595        7.0495217390        2.7747398941
 Cd        -2.0498688351        6.6276201857        2.1277600176
 Cd         4.1901587705        3.8432951888        0.2174003319
