402
 i =     8800, time =    17600.000, E =     -5882.3801399394
  O         6.4867379761        2.6174889395       10.1260108646
  O        -5.5251124357       -2.5804322446       -7.9263443566
  O         8.8900823034       -4.8411962233        6.5605657504
  O        -7.4077321480        8.1645703448        1.2001120743
  O         1.4199608043        9.5098321879       -4.4242609886
  O         8.0662612206        8.0579116733        2.6975190892
  O        -5.9631218356        8.1527552320        3.3124512678
  O         5.4946420454        7.3749061426       -5.6256325507
  O        -7.9858906983       -4.6017590410       -0.8267906022
  O         8.7407867164       -2.0534278372        5.7809700379
  O         9.3096404193       -0.9943045123       -2.5590247699
  O        -3.2320728816       -1.2868054039       -8.1174652591
  O         8.5521518732        0.0355456318       -6.7544509172
  O        -4.9779243277       -5.1699337100        9.3454876089
  O        -7.3077451499       -0.1723969178        9.1968979001
  O        -6.2119813824        6.9364912210       -0.9148416757
  O        -0.1342979175       -6.1281441754        7.1717313483
  O        -6.3419777166        2.1708087834       -4.9515141144
  O        -1.5420440782        8.7457444284        5.8672926645
  O         8.2467339578       -4.1783314156       10.3530409418
  O        -8.1829032647       -5.2508518542        5.1153407792
  O         6.7189302986       -6.2460568721        3.6031330637
  O        -8.6176642480        0.3807064503       -8.0010565774
  O         3.6971827722       -8.7565899285        4.7263493299
  O        -7.7292123587       -2.0644078093       -3.4834104634
  O        -8.6765729278        7.9349075638        3.5575045570
  O        -2.7519359764        7.5505602876       -8.0729977501
  O        -6.9234895714        2.0947745479       10.2506344406
  O        -4.9130977824       -6.6465141581        5.7441430343
  O        -8.8299007829       -6.9757986216        6.8261688396
  O         0.3830146680        8.0173493507       -2.4468540762
  O         3.4863613109        3.5133097987       -5.7538766431
  O        -7.0620437631       -6.5248985688        3.0172038104
  O        -3.7408357159       -6.3673013380       -8.1512655737
  O         7.1279487218       -7.9109789203       -3.3989983363
  O        -7.0119961641       -3.4928310619        9.0138968486
  O         8.8919730246        6.8570954282        7.6854525325
  O        -4.0066871582        3.0127554268       -6.2696023350
  O         5.0347624034       -4.3927142313       -3.5317375583
  O        -6.7956086721        7.1549695831       -5.6040081437
  O        -5.8148560727        4.3472995309        9.6201997003
  O        -1.8690119778       10.3810475886        7.8017931402
  O         5.5721419880        3.4320536762        6.6252952848
  O         4.4041369579        4.5636435801        8.5796916197
  O         9.3961296746        2.6349665883        9.4277099696
  O        -2.4873286500       -5.6559592480        8.8383827776
  O        -7.6999712109        8.3375251717       -7.7499406352
  O         4.9010928832        0.6271127142        9.6562342243
  O         6.3086350315        9.5555214415        9.0143627203
  O        -0.0647175050        4.4660333543       10.0780262286
  O         5.7498836521       -6.3281998177        6.2117838353
  O         5.0479618978       -6.2067769601       -5.3730312448
  O        -3.8315557623        5.2727974174       -7.7157160570
  O         2.7373996800        8.9980937267        9.1330002022
  O         8.4190655332        3.7595262445       -7.7834169919
  O         0.5467269583        5.7520639977       -7.0464656687
  O        -8.6603339390       -1.1535942945       -5.7911350871
  O         9.6089994834        2.9076511728        4.6569502207
  O        -4.7863291220       -4.6295043943       -6.2831037481
  O         4.6371121156       -6.9270923959       -2.9122527107
  O        -8.2701455931        9.3766878847       -5.5849258854
  O        -1.8720299725        9.9160041242       10.3872146615
  O        -6.2891792291        8.4946016659        8.1050649833
  O         3.4802752871       -5.3385063216       10.0109430121
  O        -7.7480813750       -0.8319545604       -1.1246342095
  O        -6.1175481599       -4.4322363237        6.8264878003
  O         0.3603412804       -6.0533705967       -5.5359513792
  O        -6.9413143890       -3.3482988645       -5.7746473048
  O         6.8002095493        1.2242101987        7.8515888653
  O        -8.9476207861        1.5316842497       -5.5517635618
  O         4.3795055308       -3.6239845173       -7.5659622670
  O        -9.6425438944       -3.8815276786        1.0430981246
  O        -8.0360453730        5.6155795963        0.5174711196
  O         4.7217278458        5.7088641134        6.0876222695
  O        -6.6400119726       -9.2362822690       -1.2920544230
  O        -6.8183139949       -8.2934102266        8.0890118042
  O         3.9836927010        8.2815111889        5.4657734846
  O         6.7517662756       -1.8909692601       -7.3917861573
  O         3.3851877297        4.0697206785       -8.5213014308
  O        -1.0418310808        6.2540297151        8.4720934018
  O         6.7803444704       -4.9686556491        8.3112266050
  O        -5.6011895889        0.8491807368        7.3320865754
  O         9.9561264071        4.8860931477       -4.6659305757
  O        -5.7439651155       -4.6529657625        4.2897716650
  O        -7.3990859925       -9.1792618984        3.0170087801
  O         7.4784006592        1.7964496384        5.4757623499
  O         9.5845411679       -2.1410913839        3.1602128150
  O        -0.2264667128        8.1288036352       -7.8253998137
  O         7.2654628753       -7.6453072104        7.8985575099
  O        -7.5146027059        5.7023736752       -2.8641225521
  O         9.3051213397       -3.4205177433       -1.4524253025
  O         6.0816844400        6.9395959813       -2.9308491512
  O         9.1103544317       -5.3578893291       -6.5415152387
  O         6.0239498148       -2.8253305851        9.6716798467
  O         5.7993400508       -9.3404093064        6.4006280692
  O         9.0636372235        4.6749455202        0.5114202556
  O         8.2458565525       -2.8620432967        8.1234189001
  O        -4.8935013327       -1.0396179840        9.1446471931
  O         6.1918030879        3.5543605356       -6.5552119309
  O         6.2987500156        9.6493290680        1.3800885551
  O        -5.9734593190        9.9178477440       10.2692694383
  O         2.0124691180        8.3889356603       -6.7207435212
  O        -7.6023702143       -6.0796290054        9.1407148622
  O         7.3215272482       -0.9517517474        3.5699082494
  O         4.0208716733       -6.0826463739        4.1798160804
  O        -7.3105151534        5.9924750401        7.3781908189
  O        -8.3469184740        2.9146630582        0.2282582540
  O         5.1114663613       -6.9560490876        8.7817729980
  O         9.0366973080       -6.0089472723       -0.3741936254
  O         8.9756676678       -6.8617765857        4.6985901336
  O         6.8863933142       -5.6165909796       -2.1228285014
  O         6.9975660878       -2.8494798734       -2.4998206041
  O        -0.2973358601       -8.2979991701        5.6764855650
  O         9.9995341230        6.9871550498       -6.2468506538
  O         7.4336956353        0.0659405900       10.2236925904
  O         0.7770157238       -9.2450821857       10.2155362547
  O        -2.3444716448       -5.8353469964       -6.1905767739
  O        -1.9675536037        9.4634840565       -6.4283558252
  O        -3.5858714284        5.4050648934        8.8349690745
  O        -7.1360088993       -5.2599212727       -3.2555449334
  O         7.7186278083        6.2714830885       -4.9144959036
  O         2.8622246516       -7.8905242333        9.9596048045
  O        -0.6660077584       -7.7529581755       -7.3735171281
  O         6.6138571857        9.5731023972       -5.1371740642
  O         5.8307318483        9.2590847950        3.8139386974
  O        -0.5249840158       -7.1024660328        9.5193317419
  O        -8.5183819637        8.3074996034        6.7430089498
  O        -0.7902926417       -2.3849481536       10.6210110410
  O        -8.5627597487       -7.8583731397        0.1581951561
  O        -5.7134031002        4.7637338697       -4.9968905040
  O         8.1082207922        3.4234092591        7.3829732403
  O        -5.1048825345        6.5781065608       -3.4087500506
  O         0.0617286215       -4.6776209726        9.3783048207
  O         8.2617192010       -8.7219472201        0.0446327504
  O         6.2220090606        8.7374886845       -0.8399315112
  O        -6.2089073632       10.4231644195       -4.1040001975
  O         8.6376844657        7.7402554233        5.2371041048
  O        -3.6123281837        8.1140365642        4.4925960917
  O        -4.4099789097        2.2314100721        5.3401713915
  O        -5.4701264508        9.7546079469       -6.6476511122
  O         9.0413353255       -8.5743134152       -4.8631692119
  O         7.5752701773        7.5600928143        9.9412881666
  O         2.0100680358       -8.0767841623       -6.1798353033
  O        -7.0345858787        8.2942568017       -3.0622748951
  O        -5.8704309587       -0.1304293094       -7.9204723356
  O         2.0255083633       -6.8219344925        5.7644962559
  O         6.6652068738       -5.2842732389       -7.3905513638
  O        -8.2035399354        3.1432161936       -3.4714575923
  O        -4.9410871122       -7.9901505507        3.4681862985
  O         8.8249422631       -4.7430045875        3.2972670373
  O         4.0355140973        9.6296397642       -5.9135112938
  O        -8.0958249401       -7.2342431578       -5.3284863861
  O         3.3107484702        1.4265492689       -7.5994027399
  O         6.5514489139        5.8061606605        8.0125134867
  O         5.8517349819        0.5103116381       -7.1425999869
  O         2.5837799354       -5.4747332987       -6.9259027105
  O        10.4785048212        9.7436986399       -2.6207172940
  O        -8.5104908139        3.9737585269        2.5594534199
  O         4.8393884272       -7.1620163909       11.4325794907
  O        -6.4272691412        3.7855274179       -7.1963403029
  O         6.0381598708        9.0016518848       -7.7471890276
  O        -9.3697635481       -8.0968725783        9.1606020401
  O         4.2208702005       -1.2164349358       11.2511530232
  O        -7.9626954994       -4.1492712331        2.8442515671
  O        -3.7345314909        9.9375885879       -4.5813311369
  O         3.8583603708        6.7217321157       10.0110995037
  O        -6.3723184455       -1.7475893870        7.0799674562
  O        -5.1180205223        9.8806635381        5.4992304989
  O         7.7629072199        6.3981585688       -0.9426138368
  O        -6.3350840790        3.5233156318        6.6812102623
  O         0.1474549347        7.4512113660       -5.1531056397
  O         5.8512681376        5.0218051198       -8.5822736230
  O         5.3542494962        4.8819114864       -4.4728900740
  O         9.4835172950        4.6867455122       -2.0943558463
  O        -2.8010174467        6.5289655409        6.5078694574
  O        -1.5441274474       -7.8130641954       -4.8516904659
  O         1.1635104924       -2.3403749169        8.5945737993
  O         1.6711046798       -3.4567875220       10.9482229333
  O         8.3688418031        9.8928537028       10.6967016614
  O        -1.5380609274        3.9539255593       -7.0866354652
  O        -9.0351622328       -8.4540884205       -7.5081137998
  O        -2.8477183126       -8.2871416567        5.3200800751
  O        -7.9278846620        0.5251936742       -3.3672407601
  O         9.2269596094        5.7282870595        3.7534605777
  O        -4.2145625012       10.3249705349        8.5583162001
  O        -3.3730725206        3.2076533596       -8.9667348446
  O        -1.3753903320        6.7011888250        4.3304176667
  O         1.2088482203        3.2374296677       -7.1364513989
  O         8.3671323559        9.3585914113        7.2419424100
  O        -2.8610106109       -3.8587068892       10.8245665034
  O         1.3543879966        6.6270743482        9.4780677687
  O        -6.8078911766       -4.7812998283       -8.0723548521
  O        -8.6079381861       -3.1128477396        7.0402365633
  O        -5.9969575146        7.4980943817        5.8094268194
  O        -3.6082259016       -4.1568750774        5.7571290357
  O        -4.1519737363        2.9781124385        7.9544702278
  O        -8.4727302009        4.1890755246       10.7222224375
  O         7.5304024216       -4.4435310603       -4.4622948457
  O         8.5607124398       -6.7404256030       10.7918912310
  O         8.6946493206        5.2580037696        9.5706113918
  O        -6.0693437634       -8.0355663327        1.1096346562
  O        -8.6433126002        3.9068877633        7.7124530235
  O         6.0585052831       -7.9515008202       -0.9411607047
  O         6.9468005885       -7.5375661595       -6.0907649127
  O         8.9044193560       -7.1247400068        1.9941152058
  O         2.4160755773        6.3864121986        4.7431262865
  O        -9.5645124025       -5.6528262983       -3.9867581375
  O        -6.3121512271       -6.5384924839       -0.8509422851
  O         9.8228935245        7.2992718679       -3.6981240328
  O        -9.6570430304        1.4917916933        6.9194609380
  O         2.6993867938       -5.8532368320       -4.3094913713
  O        -9.5995867405       -3.2829838369       -4.9868781394
  O         9.5466168241        0.0902996392        4.6692036756
  O        -5.3146944323        7.4814189947       -8.1708652554
  O        -2.7986824009        8.0325880770        8.7238288225
  O        10.4375394072        7.6261368776       -0.9911956677
  O         1.4343762098       -8.4125960054        7.7450529136
  O        -7.8042984687       -7.5606766142       -2.7522606008
  O        -8.0604184527        4.7536523135        5.1613363225
  O        -1.3813457773        9.1204914864       -3.8787732868
  O        -4.6825888443       -7.2409481961       -5.6709712242
  O        -4.0908326866        6.8865223953       -5.7945204034
  O         8.3029430699        8.5949739709       -2.1955798409
  O         2.9395116496        6.9834019542        7.4410361520
 Si         2.9829481953       -7.2918700664        4.5377998723
 Si        -6.5572837237       -4.9251024046        9.6464693920
 Si        -4.0352178689        6.8638879149       -7.4177735083
 Si         6.4561539468        1.1227411334        9.4797337302
 Si        -9.6467327418       -4.5416273888       -0.4219551422
 Si        -9.5211717831       -5.9497181406        5.7614734238
 Si         9.1487906615        7.3136089433        3.6842111023
 Si        -8.0747556322        7.9289992446       -6.2514218758
 Si         4.1172009350       -6.8377535154        9.9958194381
 Si        -3.1336825027        3.8148705894       -7.4762979754
 Si        -9.0303287553       -8.5584707360       -5.8640750297
 Si         6.1566302582        6.3375900380       -4.4597468334
 Si         3.4401137764        6.7630961554        5.8780538012
 Si        -7.1578576656        0.5207220816       10.6145702144
 Si         8.1883028763       -5.3230769531       -7.9135139417
 Si         6.2670257948       -6.3742900296        7.7596560440
 Si        -7.2957235754       10.1046321636       -2.8657440798
 Si        -4.9993435479       -4.9392776630        5.7089354799
 Si         4.3369799252        5.1463203649       10.1308077488
 Si        -4.7820146809       -1.2237801265       10.7932217873
 Si        -7.0671381298        7.5789441084        7.0605466938
 Si         2.3930538965        9.7519665791       -5.7793504306
 Si        -5.4426199458        6.3969341505       -4.9989272586
 Si         5.3452749217       -2.4234009337       -8.2468145581
 Si         6.9694035449       -9.2690622279        7.5593152806
 Si        -7.2012324789       -5.1394118803        3.8383409636
 Si         5.1369592445        3.4857799700       -5.3197664712
 Si        -1.7208294643        8.6882186565       -7.7741422171
 Si        -8.1749293630       -2.5407799480       -5.0474375033
 Si         5.3772758130        4.9231272770        7.3667998521
 Si         4.3067979899       -5.7792185701       -4.0276238937
 Si         6.8906799562        2.4991680827        6.8468226339
 Si        -8.7090019421        4.6862343560       -3.1624491870
 Si         9.1368036010       -3.1851056098        6.8933154739
 Si        -6.7292247393       -5.1969437239       -1.6978197616
 Si        -2.1777374647       -2.5099370865       -7.8673480291
 Si        -6.4805348899        6.9369579826       -2.5451798804
 Si         9.3876857534        3.9655662495       10.3415686774
 Si        -8.2080383506       -7.2929505144        8.2753459390
 Si        -2.8457098323        9.6197007062        8.8028758450
 Si         0.5258680701       -3.0892636497        9.8302884744
 Si         8.7390975232       -1.3255652958        4.2754200872
 Si        -5.1395109003        2.3929728420        6.7955978602
 Si        -6.9370776843       -8.0010240597       -0.2132206157
 Si         3.0247662750       -4.3882967543       -8.1268729183
 Si        -5.8297480541       10.0149110862        8.6385555755
 Si        -8.3830532153       -0.8349228331       -2.5704534205
 Si         5.5302966398        8.9469721051       -6.1484277784
 Si        -8.1777567187       -6.4850623160       -3.8591434097
 Si        -7.4156535896        8.6292919045        2.7253905613
 Si        -5.2061424142        8.4118914300        4.7423326340
 Si         0.1347424243        8.5746979331       -3.8820279932
 Si         6.1407786829       -7.1312067995       -2.3457554905
 Si         7.8599322560        6.3885124217        8.8480954203
 Si         9.0064727112       -4.7498402804       -4.9895998721
 Si         7.2866647060       -3.6788513514        9.1186932917
 Si        -2.1590505593       10.0633263263       -4.8854284908
 Si        -4.4494609150       -8.0542299240        5.0136671538
 Si        -0.4809659382       -8.2893675307       10.5187631957
 Si        -6.9269389357        3.6538617818       -8.7694965448
 Si         1.9844836270       -6.4131105984       -5.7608445642
 Si        -6.1125385076        8.8929976392       -7.8476805175
 Si         9.3577942476        6.3400091620       -4.8816460522
 Si        -7.5870745623        4.5548148872        6.6511012074
 Si        -0.8284291192       -5.7011462472        8.6457466473
 Si         9.1301235191        1.5186543634        5.3626024118
 Si         9.2700993815       -7.4737217771        0.4620599934
 Si        -5.0928827527       10.6152118004       -5.2435310419
 Si         0.3204834141        5.4969594886        8.9377831559
 Si        -2.6221355823        6.4760744890        8.1203345256
 Si         6.7756936001        3.7367297813       -8.1069711912
 Si         5.8204285915       -6.5693150312       -6.7639194777
 Si         2.8961002079        3.0402417816       -7.2141157248
 Si        -1.0190360782       -6.7863521483       -6.0195153521
 Si        -5.6247390935        3.4153407443       -5.8747153938
 Si         7.0441810925        7.6604460978       -1.8050566161
 Si         8.3250801173       -6.2969906898        3.3475990892
 Si         7.0635436863        9.0014801283       10.3740032836
 Si        -6.0545011392       -3.7926359831       -7.0789415231
 Si        -9.2109698092        0.1926250480       -6.4877360732
 Si         0.7082132142       -7.4362524992        6.6308020397
 Si         8.3590561968       -2.1370256823       -1.7563183895
 Si        -4.2228375501        4.0062425716        9.2322233756
 Si         4.5004672617        0.3552950249       -8.1341170606
 Si         0.7350887738        7.3958118021       -6.6402459117
 Si        -7.0418785002       -3.1717704879        7.3953998733
 Si        -2.3229088229        7.4221184008        5.2922769185
 Si         4.8938441254        9.5145248935        5.1323003194
 Si        -3.9441111315       -6.0135185070       -6.5513863746
 Si         7.4456273139       -8.4629731440       -4.8911495892
 Si         1.9695584831       10.4162538261        9.1823433034
 Si         6.7083558781       10.1486991920       -0.1124064015
 Si         7.1960069777       -0.3353632859       -7.5460535371
 Si        -0.0146181076        4.3538929610       -7.6093578214
 Si        -9.4938274157       -3.6725497844        2.5932978708
 Si        -3.4585553639       -5.1944679347       10.0605867982
 Si        -7.8485135075        1.8236931591       -4.3272921974
 Si        -7.6431776832        7.1342923387       -0.0848543710
 Si        -6.3670674448       -7.9301510634        2.6786312905
 Si         6.4589935363        8.4419268028        2.5006952431
 Si        -1.6492187858       10.3474055722        6.0833345944
 Si         8.4357882303        4.8800842682       -0.9218767492
 Si         5.6024411439       -5.6623647198        4.7096662431
 Si         9.3165083973       -8.1697773585       10.6124403294
 Si        -9.7934962307        2.8357716210        7.8890405167
 Si        -9.1256111865        4.3571326158        4.0121691337
 Si        -6.0449509925       -0.4574928934        8.1529692456
 Si         9.2013321131        8.0288460007        6.6664106112
 Si         6.6074975242       -4.2965591533       -3.0696437611
 Si         9.8517082145        8.2636639118       -2.3608137218
 Si        -8.7728475082        4.2662628446        0.9318092782
 Si         2.7415192970        7.3530802094        8.9811360572
 Se        -2.3516884127       -0.9510148542        3.1917028761
 Se        -1.5804576049       -2.8247914908       -5.6975249701
 Se        -4.8065215472       -3.8784836855       -1.3716545615
 Se        -1.8790052239       -5.0217842926        1.9357293702
 Se         1.3918729695       -4.4342059408       -0.7245514288
 Se         1.5481245344       -7.3763448660        2.6835911439
 Se        -6.5022043505       -0.9351217451        2.1787542982
 Se        -4.0117591811        0.0305332049       -4.6378880689
 Se        -4.9879897445        1.9344947642       -0.1727111470
 Se        -1.9199517480        0.2118478546        7.6063536232
 Se         4.1891829070       -0.0992569431       -1.2392023824
 Se        -2.4756367316       -1.4624028289       -0.9112111188
 Se         1.1727830385       -0.7989459605        0.8651999857
 Se         0.8090901432       -3.0222274797        4.8934682940
 Se         5.2058047709       -4.1982776793        0.6492226886
 Se         5.8278232201       -3.4338195258        4.8637626079
 Se        -2.3128769224        5.1858152343       -2.1968597309
 Se        -3.9934571467        5.2261754860        2.1152547602
 Se        -0.7401577343        2.6213755038        4.4350863261
 Se         0.3202891729        1.3859383558       -3.6109027589
 Se        -0.6775360897        2.4677782146        0.3011264337
 Se         0.7077587594        5.7137722395        1.5799438210
 Se         1.1347824799        4.2404062233        7.2975169358
 Se         5.3030345908        1.5427631872       -4.0679020794
 Se         3.7256675159        2.8445066543        2.0937037050
 Se         1.8238818014        0.6564063952        5.5113933501
 Se         4.0012211782       -0.1240387703        5.9744794144
 Se         7.9146048035       -0.9355276933        0.1773768331
 Se        -1.8825624785        9.0373372855        0.7378407368
 Se         3.0345354959        8.9527630289        0.4753555341
 Se         2.5096206472        4.5375517880       -2.0828195309
 Se         5.4823128324        6.4307657464        2.3325290090
 Se         6.5932098322        3.5491793137       -1.5698478626
 Cd        -6.3753828752       -2.2266621689       -0.0355901982
 Cd        -4.5828057618       -2.3154384731       -3.5095866762
 Cd        -2.8350220738       -3.4568730191        3.9075256819
 Cd        -3.0153162836        0.4128748447        5.3283675971
 Cd         3.2757188661       -2.5977457566       -0.4763475455
 Cd        -0.5196025563       -3.0773027155        0.5676688524
 Cd        -7.6690359277        0.9295910359        0.5693914652
 Cd         1.1883332400        3.2176170880        2.0712017342
 Cd        -4.0170409312       -0.2250343898        1.1710884886
 Cd        -0.6693155884        2.4776669592        7.3308123804
 Cd        -1.2023340657       -0.5353416223       -4.4873802175
 Cd         5.4010505562        0.2614368091        3.7368492070
 Cd         0.2486400588       -5.1806424858        3.5236179423
 Cd         3.4101105745       -2.8371097754        5.1961679916
 Cd         3.8268527402        0.1425903496        1.4483187135
 Cd         2.9494474025       -5.3594728378        1.2066578796
 Cd        -1.6051090511        7.3348699780       -1.2207661758
 Cd        -3.2872146692        3.8551040255       -0.0045322484
 Cd        -3.0870869103        3.6103471725        3.8807861909
 Cd        -4.2494708641        0.8344036426       -2.2670743270
 Cd         0.0087343879        4.2639904537       -1.5364240375
 Cd        -0.5309144711        0.3136856758       -1.2281971935
 Cd         0.3540112348       -0.9784509054        7.0810611297
 Cd         2.9091683641        1.3354530070       -3.0719126289
 Cd         6.8786085769        0.9568222923       -1.1308166879
 Cd         0.3441238622        5.5135118926        4.9202231229
 Cd         5.9768244380       -1.9755776407        1.9962723282
 Cd         0.6654324629       -0.7987736094        3.4041024312
 Cd         2.3080984068        7.1425140441       -1.3332114910
 Cd         0.5166335962        9.6473978897        0.8545597626
 Cd         2.9763886668        6.9618007463        2.4585869842
 Cd        -1.7097499280        6.7016596066        2.0639766201
 Cd         4.2739826903        3.6895726146       -0.1744488277
