402
 i =     9000, time =    18000.000, E =     -5882.3781987368
  O         6.7684692660        2.8192175392       10.1794890118
  O        -5.4591780187       -2.6198353322       -7.9689297240
  O         9.1745121289       -4.8707340162        6.4974887582
  O        -7.6075070186        8.5052668895        1.0357841984
  O         1.7484990992        9.5717034902       -4.3252243853
  O         8.0894154916        8.1548411864        2.7616939492
  O        -5.9127393780        8.5368167992        3.2132879342
  O         5.2670467812        7.4786499447       -5.7135567589
  O        -8.0119738442       -4.6603808705       -1.1676482757
  O         8.7858673567       -2.2253460876        5.4164678325
  O         9.3523298580       -1.0872559681       -2.7729714370
  O        -3.2392461089       -1.1634104128       -8.3061259496
  O         8.3295231340        0.0895401225       -6.6324623346
  O        -5.0849409499       -5.1222790078        9.3872310183
  O        -7.3700393200        0.3123357610        9.0545845157
  O        -6.4591870103        7.0483520664       -0.7854028012
  O        -0.1583943541       -6.2532342320        7.1635070696
  O        -6.3440298024        2.2246111206       -5.1427180107
  O        -1.8835741090        8.9147765034        5.8777018340
  O         8.4570936518       -3.8865860246       10.3846886866
  O        -8.2017072824       -5.3697747845        4.9307431484
  O         6.7953235180       -6.4285804541        3.5334504212
  O        -8.7300671034        0.3136077461       -8.0314370774
  O         3.9448995281       -8.6358201099        4.6854740504
  O        -7.7423245478       -1.9892384165       -3.6474064142
  O        -8.6161849389        8.0295326714        3.3453805864
  O        -2.6742334418        7.6481493438       -7.6769060106
  O        -6.8287433117        2.2607960201       10.7790667510
  O        -5.1766400627       -6.4009798814        5.6580286595
  O        -8.6804423846       -7.1718366863        6.8114038055
  O         0.6469988176        8.1364529881       -2.2708076614
  O         3.4957494032        3.5292606374       -5.8015848694
  O        -7.1253767754       -6.2227738220        2.6194976564
  O        -3.6118638467       -6.2978065514       -8.2404511404
  O         7.3013757167       -8.1963322394       -3.4850203260
  O        -7.0170050140       -3.2469340834        9.0105251293
  O         8.8293433469        7.0015186949        7.5731225305
  O        -4.0023669418        3.1394228083       -6.2564333093
  O         5.0611053488       -4.5431473135       -3.6380656438
  O        -6.7810102487        7.0073321497       -5.3553007762
  O        -5.9389486144        4.3902386082        9.8403162151
  O        -1.9832763869       10.5763238765        7.8492564942
  O         5.8583018014        3.5740820281        6.5936426216
  O         4.5005411840        4.3698930482        8.7395143912
  O         9.6384885166        2.7369930222        9.4252747980
  O        -2.5611308778       -5.6121347852        8.6775156849
  O        -7.6187343794        8.2336831993       -7.6511188207
  O         4.7614020866        1.3832998524        9.7142471130
  O         6.2772268301        9.6542811940        8.8400970489
  O        -0.0918094103        4.6661667710       10.2084300118
  O         5.8703592991       -6.1102941303        6.0973698810
  O         4.8587711149       -5.9816983880       -5.8561781721
  O        -3.8236822737        5.3776319797       -7.5423611634
  O         2.6883408098        9.0763576269        9.2966335069
  O         8.3828581756        4.0647992293       -7.8156147807
  O         0.7868596731        5.8694436881       -7.0163498721
  O        -8.6942025138       -1.0739605165       -5.8456436733
  O         9.4260817480        3.0335272731        4.4572550018
  O        -4.8414956527       -4.7824240128       -6.3419346320
  O         4.8757772240       -7.0250139688       -3.3058032143
  O        -8.2738646157        9.3139597579       -5.4460718426
  O        -1.9184959569        9.9967766431       10.4652785381
  O        -6.0711268122        8.3265964551        8.3357166442
  O         3.4486726600       -5.1611575164        9.7970963322
  O        -7.7783972451       -0.6943146333       -1.2815265399
  O        -6.1606392504       -4.0140346255        6.6186785759
  O         0.3020866798       -5.9447814408       -5.6701635180
  O        -6.9882135908       -3.2277756810       -5.8864849225
  O         6.6264898182        1.3594649170        7.9253627104
  O        -9.0658280881        1.5948617816       -5.6362320518
  O         4.2565534322       -3.4770423500       -7.8384767381
  O        -9.6073040796       -3.7285260116        0.8068514841
  O        -8.2595163969        5.9121158642        0.8012618739
  O         4.6112156075        5.7197337692        6.4313224470
  O        -6.6621101121       -9.0847346634       -1.2913276645
  O        -6.7125704848       -8.3371216215        8.2852677038
  O         4.5687637870        8.1906093975        5.4984977773
  O         6.5385894701       -1.7877204847       -7.3486052712
  O         3.2967410446        4.2020601872       -8.3014734632
  O        -1.2361212623        6.0267925979        8.2450399011
  O         6.9657223872       -5.0659478693        8.5092466275
  O        -5.5117307050        1.0258426928        7.2267057401
  O         9.7075287067        4.9944435242       -4.5033129386
  O        -5.8330138497       -4.5118249721        4.0575418832
  O        -7.5215854938       -8.9221392947        2.9351790278
  O         7.4865898568        1.7509799125        5.4040219592
  O         9.3444362559       -2.0647700309        2.8765131099
  O        -0.2246731409        8.2494129445       -7.6345483244
  O         7.4065010217       -7.5191429706        7.7261809537
  O        -7.6819231066        5.6838241472       -2.7838077125
  O         9.1106535458       -3.6180956159       -1.7824862086
  O         6.0056566494        7.1293411885       -3.0858438909
  O         9.0803766293       -4.8904040094       -6.7257044919
  O         6.0603386171       -2.8477937414        9.6269420262
  O         5.8789864528       -9.1782015938        6.3408681664
  O         8.9773920952        4.4673025054        0.5189539942
  O         8.1774792583       -2.7838119292        7.8760088308
  O        -4.9460421595       -0.8260321349        9.1589083991
  O         6.1312687761        3.4429302684       -6.5047818931
  O         6.6234260004        9.7263177447        1.2760802751
  O        -6.2811365222        9.9709950295       10.4553978018
  O         2.1464296749        8.4307703924       -6.5649085821
  O        -7.6124155474       -5.8763495724        8.9251086089
  O         7.2600121330       -0.7953288643        3.6814099493
  O         4.1310959535       -6.1420668548        3.9718012930
  O        -7.1960286894        6.1146123173        7.2423096580
  O        -7.9620166154        3.2567053358       -0.0109122551
  O         4.9398706934       -6.7035976568        8.4226773139
  O         9.1240554403       -6.0448371280       -0.4604890876
  O         9.0866983502       -6.8839759838        4.6455143998
  O         6.9452369526       -5.7055527324       -2.2743570929
  O         6.9251658859       -2.8713490062       -2.7513437028
  O        -0.4429748077       -8.3950382560        5.8274636529
  O         9.9026563547        7.0735604376       -6.1924100514
  O         7.1320499044        0.1564299239       10.2782260194
  O         0.7187160072       -8.8600266848       10.5019192705
  O        -2.4180710703       -5.9318967766       -5.9366569304
  O        -1.9365863670        9.5462520736       -6.1771800622
  O        -3.7856150247        5.6509476433        9.0439336831
  O        -7.0630628834       -5.3849691235       -3.6025294209
  O         7.5561501470        6.4984386129       -5.2022617615
  O         3.0326819386       -7.7812630458        9.5882027154
  O        -0.9192002731       -7.6601532635       -7.2717287006
  O         6.7935851779        9.4949010116       -5.5317529993
  O         6.0415148109        9.2994352763        3.7865866594
  O        -0.6906129219       -7.0825902778        9.4617450346
  O        -8.4608456380        8.4791817989        7.0946639640
  O        -0.8344075456       -2.1551007699       10.3590761508
  O        -8.4994072320       -7.6768910056        0.3250915659
  O        -5.4375280913        4.8226372459       -4.7927306361
  O         8.2097095652        3.4519782472        7.4787529819
  O        -5.3122425623        6.9527499391       -3.2347401061
  O        -0.2182269038       -4.5142882053        9.1575292926
  O         8.3663547349       -8.7223431201       -0.3069992648
  O         6.0752900763        8.6778042228       -0.9293233032
  O        -6.1436059095       10.4481220667       -3.9222577179
  O         8.9870807829        8.0282552906        5.2635045334
  O        -3.9663355792        7.9544259197        4.4486349288
  O        -4.1576499245        2.3733454865        5.4733874174
  O        -5.5574289480        9.6316500502       -6.4181221437
  O         8.9818017830       -8.5210477273       -5.3862606312
  O         7.4277670841        7.5942738847       10.0871740210
  O         2.2357487502       -7.9661892829       -6.1828378132
  O        -7.3611811823        8.4339827116       -2.8382247090
  O        -5.9644750798       -0.1312739967       -7.9804678351
  O         1.9765902014       -7.0733163944        5.7683480713
  O         6.7733314955       -5.2146543713       -7.5675232473
  O        -8.2244538937        3.1544234950       -3.5352619279
  O        -4.9878849405       -7.8052302243        3.4202616698
  O         8.7830785489       -4.7242104600        3.0143047684
  O         4.1729578504        9.7927093851       -5.7191152318
  O        -7.9564702453       -7.4556226513       -5.3640325330
  O         3.1363897973        1.6016412228       -7.6377429230
  O         6.5777921148        5.9324881293        8.2149086243
  O         5.5731339140        0.6597079876       -7.0623553813
  O         2.4843615453       -5.5314363645       -7.1075714503
  O        10.2633861794        9.8593856513       -2.5524828863
  O        -8.3800307688        4.0043082196        2.5593539258
  O         5.0167348849       -7.0018911680       11.1374158966
  O        -6.5155576123        4.1842587432       -6.9502773561
  O         5.7942220625        9.1261689855       -7.8964013292
  O        -9.2285644111       -8.0265996999        9.1527166594
  O         4.3082027245       -0.9461889747       10.8324287435
  O        -8.0026638120       -3.7321937707        2.8573881191
  O        -3.6386774364       10.0257814676       -4.4228846099
  O         3.7659536669        6.6257240102        9.9516418553
  O        -6.4498955534       -1.3941830872        7.0788761021
  O        -5.2056655424       10.1373196709        5.5666526251
  O         7.4854021128        6.2022343699       -0.9869526359
  O        -6.3248023606        3.6717496029        6.4703933214
  O         0.2571143487        7.5869495069       -5.0492886363
  O         5.7558727010        5.1119374646       -8.3951946603
  O         5.2773093095        5.0735987588       -4.6044759154
  O         9.3536162932        4.4296567211       -2.0305087959
  O        -3.3187502172        6.7655269666        6.6699201456
  O        -1.3300467529       -7.7755323362       -4.7127974763
  O         1.0355014141       -2.3349134816        8.3756490753
  O         1.5017392087       -3.4965437018       10.8685068531
  O         8.0722688294       10.1300571810       10.7531044942
  O        -1.4493341407        4.0872044803       -7.0071466320
  O        -8.9238221334       -8.4956848297       -7.6009432483
  O        -2.9732997226       -7.9983379883        5.4208254883
  O        -7.8963109994        0.5713942551       -3.5895784774
  O         9.3661039453        5.9008330987        3.6552099279
  O        -4.3554727334       10.2171457566        8.9231930060
  O        -3.4425609437        3.2934874449       -8.9260997940
  O        -1.6011041614        6.6027463784        4.5646388141
  O         1.1563171222        3.3705556356       -6.9794904034
  O         8.4044159052        9.5047049210        7.2478142374
  O        -2.9519050704       -3.7776118971       10.5510362891
  O         1.1348229356        6.9116112552        9.3551996714
  O        -6.8884979505       -4.7795635409       -8.0930211724
  O        -8.5841418422       -2.8503782809        6.8500453917
  O        -6.3562324399        7.8825618337        5.6634629726
  O        -3.6182995512       -4.0984527688        5.5091622484
  O        -4.2723586651        3.2926268503        8.0182427529
  O        -8.3924684582        4.5656038735       10.8063866395
  O         7.5294026534       -4.6015532475       -4.6131743527
  O         8.7699785580       -6.6518455408       10.8124587696
  O         8.9156217822        5.4735226385        9.6565838985
  O        -5.9849355655       -8.0156882194        0.9883567166
  O        -8.6264819343        4.0343836257        7.4073126834
  O         6.0503349553       -8.0275821439       -1.0821632902
  O         6.8244178505       -7.2946707254       -6.0599713185
  O         8.7762901991       -7.2075761311        1.8697036723
  O         2.5374103159        6.6713429221        4.9821786178
  O        -9.5520023346       -5.8011463758       -4.3051637194
  O        -6.1870020360       -6.5625618329       -1.0368964051
  O         9.7290644680        7.3632238664       -3.7195754314
  O        -9.4634367711        1.7610873335        6.6611880801
  O         2.6939437706       -5.9764872213       -4.4721229908
  O        -9.5927689801       -3.2961644263       -4.7775429357
  O         9.5823281139        0.2158614700        4.4722326719
  O        -5.2343301876        7.6205106717       -8.0386831237
  O        -2.8083975875        8.0802826742        8.7985750823
  O        10.3716375136        7.4805366274       -1.1208850482
  O         1.2007927644       -8.5774765522        7.8633086425
  O        -8.0055705055       -7.5405763409       -2.7755989313
  O        -8.1070163371        4.9110301724        5.0040895867
  O        -1.0486664374        9.3106206183       -3.7177145673
  O        -4.6046256791       -7.4694287283       -5.9349944593
  O        -4.1766289133        7.1492831568       -5.6262779194
  O         8.2314052971        8.5620079255       -2.0588236752
  O         2.9751825234        7.3351952090        7.5025229885
 Si         3.0336959909       -7.3130444778        4.4858886214
 Si        -6.6803894031       -4.7688681000        9.6035760821
 Si        -4.0371273888        6.9319421603       -7.2535337123
 Si         6.4110480762        1.3875913222        9.4674392943
 Si        -9.5270337171       -4.5467985865       -0.6021907645
 Si        -9.4177748924       -6.1031224162        5.7870709495
 Si         9.2749603038        7.4881862685        3.7819100341
 Si        -8.0185380798        7.8379063498       -6.0798954274
 Si         4.0788690744       -6.6178600561        9.7891174211
 Si        -3.0960720849        3.9469376725       -7.4134168551
 Si        -8.8921538519       -8.6299538744       -5.9703266543
 Si         6.0334876289        6.5041219766       -4.6186436426
 Si         3.6536724591        6.9607072405        6.0567409368
 Si        -7.2552761464        0.7247635850       10.6687299961
 Si         8.2769320004       -5.2548363269       -8.0462218102
 Si         6.3285591274       -6.2929707905        7.6237674806
 Si        -7.4358528883       10.2366092202       -2.7454158200
 Si        -5.0757325644       -4.7029452138        5.5039066163
 Si         4.3472532814        5.1037649312       10.1286240871
 Si        -4.9142875056       -1.2136997749       10.7691591577
 Si        -7.0299983105        7.6621136295        7.1152097691
 Si         2.5445355249        9.8756841619       -5.7312231152
 Si        -5.4088459400        6.4471745752       -4.7399876532
 Si         5.3118588580       -2.2627514472       -8.3114007098
 Si         7.0349751104       -9.1156260112        7.5122479704
 Si        -7.2955288324       -4.9540717888        3.6385346466
 Si         5.0026537618        3.6090667490       -5.2352237282
 Si        -1.6825560192        8.8461115372       -7.5450506711
 Si        -8.2635832559       -2.4598310155       -5.1134667449
 Si         5.4445120080        4.8555315908        7.4819734904
 Si         4.3337788885       -5.8758325462       -4.3110608840
 Si         7.0567517026        2.4859782353        6.8386289620
 Si        -8.8934349812        4.6181694493       -3.1355243151
 Si         9.2060082489       -3.1818174607        6.6794796791
 Si        -6.6993949034       -5.3409601964       -1.9325395805
 Si        -2.2165868749       -2.4704626444       -8.1537860747
 Si        -6.7398209625        6.9765287760       -2.4477110897
 Si         9.4587619447        4.1222299124       10.3573264961
 Si        -8.0424074862       -7.3136456383        8.3168677467
 Si        -2.8611871226        9.6768542576        8.8713034437
 Si         0.4169035683       -3.0420716774        9.6230361261
 Si         8.7357468206       -1.2556497867        4.1612450962
 Si        -5.1409663492        2.6214121822        6.7339574003
 Si        -6.9110236800       -7.8701626795       -0.3123363952
 Si         2.8879728492       -4.3761246633       -8.2181361125
 Si        -5.9272970138        9.8388586667        8.9141825309
 Si        -8.4100842106       -0.7350165272       -2.7502650648
 Si         5.4857793783        8.9275629440       -6.2904596517
 Si        -8.1489600004       -6.5307036626       -4.0446442907
 Si        -7.4196144227        8.8717700043        2.6716360715
 Si        -5.3406550885        8.7167473437        4.7254408032
 Si         0.4927018150        8.6563547761       -3.7517760676
 Si         6.3177677438       -7.2790868945       -2.5012663725
 Si         7.9141880167        6.5123171884        8.8906577800
 Si         9.0678019774       -4.7434034799       -5.1545073128
 Si         7.4311075675       -3.6069845985        9.1558748892
 Si        -2.0187196924       10.1147516285       -4.7079777191
 Si        -4.6045243080       -7.7834822642        5.0411188964
 Si        -0.6309692077       -8.1292537784       10.6449748598
 Si        -6.9792192733        3.8414208939       -8.4857101360
 Si         1.9035507981       -6.3384598402       -5.8544162407
 Si        -6.2085162331        8.9439036098       -7.7213710704
 Si         9.1699495312        6.4605634837       -4.8781492157
 Si        -7.5840569434        4.7101305019        6.4976109059
 Si        -0.9251145594       -5.7881682868        8.5265310575
 Si         9.1514701822        1.5926038208        5.1944177443
 Si         9.2782032762       -7.4342294423        0.3334906130
 Si        -5.0546468511       10.5429482269       -5.0995909566
 Si         0.2580425245        5.5382456464        8.9023904902
 Si        -2.7679604845        6.5326924755        8.2263354655
 Si         6.7321294083        3.8845323530       -7.9423110414
 Si         5.8840827995       -6.3927787108       -6.9742136986
 Si         2.7676856757        3.1793709476       -7.1925329986
 Si        -1.0786910112       -6.7841377885       -5.8588186310
 Si        -5.5782063127        3.5763783279       -5.8023815775
 Si         6.9860227175        7.6144695623       -1.7741303161
 Si         8.3947937328       -6.3004346762        3.1709801837
 Si         6.9024271655        9.1109968346       10.2331971300
 Si        -6.0881227409       -3.8488781703       -7.0337899992
 Si        -9.3684440683        0.1895482557       -6.5263448035
 Si         0.6925132334       -7.5626804228        6.6833587860
 Si         8.3165270815       -2.1644014133       -2.0761658687
 Si        -4.3465558609        4.1491234647        9.3652608192
 Si         4.3124405318        0.6508908250       -8.2132597105
 Si         0.8229966079        7.4827576506       -6.6049333391
 Si        -7.0711688763       -2.9295275310        7.3646741386
 Si        -2.6621201350        7.5342715167        5.3799423011
 Si         5.0729582483        9.5889026464        5.0193817282
 Si        -3.8722448313       -6.1253008662       -6.6384682429
 Si         7.4005526031       -8.4633408312       -5.0955228372
 Si         1.9109267471       10.5128777221        9.3543582124
 Si         6.8033252000       10.1205398965       -0.3194014386
 Si         6.9753406429       -0.1962910830       -7.4381648970
 Si         0.0739698842        4.5188065556       -7.5047093018
 Si        -9.5945862380       -3.5242284466        2.4289270504
 Si        -3.5678651440       -5.1900693399        9.9082939796
 Si        -7.8873049137        1.9118241641       -4.5123923552
 Si        -7.8781348507        7.2474516346        0.0218104625
 Si        -6.3957524827       -7.7041902087        2.5245192824
 Si         6.5663717160        8.5280751101        2.4078466935
 Si        -1.8968226683       10.4774263362        6.2274259193
 Si         8.2236974332        4.7110657401       -0.8526467201
 Si         5.6968654274       -5.6630226658        4.4966786909
 Si         9.3484521920       -8.1786424663       10.5993833980
 Si        -9.6419124016        2.9184128976        7.7977458206
 Si        -9.3002090863        4.4471452307        3.8987448945
 Si        -6.1465613770       -0.2108165299        8.1444947242
 Si         9.3669495240        8.2641928779        6.8174928593
 Si         6.6885950329       -4.3860600702       -3.2655697698
 Si         9.8483776342        8.3238154466       -2.4252704227
 Si        -8.6769901411        4.3380483434        0.8980832212
 Si         2.6601907791        7.5024453451        9.0296715154
 Se        -2.3532584512       -0.5509922033        3.6682250094
 Se        -1.6549761166       -2.9787673363       -5.9667225015
 Se        -4.8354741246       -4.0056562517       -1.6453114980
 Se        -1.9135479718       -4.9551698494        1.9029186646
 Se         1.3090410046       -4.8473970630       -0.9344791495
 Se         1.6152139455       -7.3133444685        2.5962223260
 Se        -6.2252037867       -0.6295303097        1.8318710009
 Se        -3.9868272055       -0.0228138234       -4.8197970591
 Se        -4.3311600422        2.1194892429       -0.5111605638
 Se        -1.5575447969        0.6514968068        8.2115604743
 Se         3.8140548622       -0.3794180153       -1.5264827928
 Se        -2.2865072626       -1.5764118359       -0.8959449415
 Se         1.1986094660       -1.2989933292        1.2261548193
 Se         0.7899416421       -3.2047474187        5.3416250884
 Se         5.2085899509       -4.5065283035        0.3173173693
 Se         5.7118234177       -3.5022014776        4.5834439258
 Se        -1.9473954596        5.4318018470       -2.4232357878
 Se        -4.0129308716        5.4055307048        2.0606842858
 Se        -0.7738898469        2.9831551620        4.4252858035
 Se        -0.0295539449        1.1382258782       -3.3188948803
 Se        -0.7698171410        2.5254657103        0.4665746034
 Se         0.8093744176        5.9864361878        2.1205403915
 Se         1.3640796356        4.3731275901        7.3234069209
 Se         5.1170584411        1.7263627933       -3.9611257062
 Se         3.6177795800        2.6201534086        2.1759929259
 Se         1.8089654587        0.6841625667        5.2409356358
 Se         3.8816775320       -0.2803979212        5.8293146067
 Se         7.8364248370       -1.0252763259       -0.2205718086
 Se        -2.1991131076        8.9288994604        0.5230463264
 Se         2.7718718895        9.5243125729        0.7036228003
 Se         2.7023418320        5.1116171110       -1.9812677609
 Se         5.3842686263        6.4688216321        2.2484043180
 Se         6.4191060566        3.4566762968       -1.3135847354
 Cd        -6.4107535602       -2.0775014047       -0.3195759067
 Cd        -4.3250136596       -2.3646688128       -3.6133336560
 Cd        -2.6930501609       -3.2117966744        3.7941821145
 Cd        -2.7987100096        0.4173751961        5.9960702105
 Cd         3.3017741494       -3.1045735242       -1.4486230541
 Cd        -0.5640791964       -3.3312018046        0.2550400335
 Cd        -7.2173891836        1.2824745397        0.1936375170
 Cd         1.1603679992        3.3116287358        1.9093949152
 Cd        -3.7279106057       -0.1830291015        0.8922712575
 Cd        -0.7240266524        2.7369080107        7.0407714907
 Cd        -1.2023770729       -0.5126986569       -4.9009904550
 Cd         5.2287886495       -0.2857235597        3.5094279411
 Cd         0.4364101010       -4.6297393200        3.1245458255
 Cd         3.2688374741       -2.9016473787        5.2791147385
 Cd         3.5812177570        0.1113908756        1.1209614297
 Cd         2.9819176183       -5.6715398885        1.0841378912
 Cd        -1.4786340522        7.8078858482       -1.5286518981
 Cd        -3.1731290150        4.6360917019       -0.3310627299
 Cd        -3.2277725665        3.7856326092        3.8693148606
 Cd        -3.7249849951        1.1987455133       -2.7062932152
 Cd         0.2712889549        4.4333525578       -1.2914926641
 Cd        -0.2473652900        0.1990123631       -0.6516391064
 Cd         0.6235311897       -0.5493431551        7.2984378235
 Cd         2.6211171170        0.9147056285       -3.7556171786
 Cd         6.2228311695        0.7236659662       -1.4618347735
 Cd         0.4248395008        5.5491607893        4.8887361199
 Cd         5.6948450307       -2.3981204095        1.5905909091
 Cd         0.2786766832       -0.9508543220        3.6698089630
 Cd         2.3120045369        7.4294249444       -0.9090579901
 Cd         0.2378445431        9.4530230933        0.7663676956
 Cd         3.0415032634        7.5638113696        2.8780325658
 Cd        -1.6709155591        6.8818905910        2.2235702896
 Cd         4.3651089210        4.2581229110        0.1751848217
