402
 i =     6900, time =    13800.000, E =     -5882.4039137164
  O         6.5174990775        1.8899155383       10.3535590533
  O        -5.5727000249       -3.4078107927       -7.6289620742
  O         9.1010774793       -5.6277177968        6.6824312659
  O        -7.7029573952        7.5049882443        1.4459650473
  O         1.6654473207        8.2567139855       -3.9868933875
  O         8.1299183713        7.2575115376        2.9313927153
  O        -6.0340271178        7.5864917708        3.5547052872
  O         5.1991298630        6.3309277594       -5.3268827275
  O        -8.1471169509       -5.5173883158       -0.9064186594
  O         8.8344974662       -2.9909365721        5.6496391779
  O         9.4239579528       -2.0342117428       -2.4026905512
  O        -3.2911759411       -2.0441784498       -7.7384501484
  O         8.4014878365       -1.0095598052       -6.2491828574
  O        -5.1821339134       -5.6813301299        9.7596667654
  O        -7.1062323216       -0.6266988880        9.3527017431
  O        -6.4824899115        6.1263086003       -0.4751177222
  O        -0.1320353245       -6.8767542071        7.7312165518
  O        -6.3967899249        1.3737067442       -4.8996907235
  O        -1.6346751329        8.0561066030        5.9673583938
  O         8.3761204489       -5.0125843033       10.5284660472
  O        -8.0712193988       -6.2858316051        5.3485820935
  O         6.8010888336       -7.2514150759        3.8840247098
  O        -8.6211114552       -0.7141609797       -7.7910764713
  O         3.9651957473       -9.5796955506        5.1864253479
  O        -7.6482529028       -2.8398843189       -3.3626846810
  O        -8.6679726880        7.2777634142        3.9108380436
  O        -3.2079357620        7.1527236119       -7.3251258020
  O        -7.1033210146        1.3695969726       11.1594782360
  O        -4.9843386316       -7.4006269633        6.1112840385
  O        -8.8850988203       -7.9092113977        7.1372377162
  O         0.4477514016        6.6869977028       -2.1370973797
  O         3.4798873411        2.7168731717       -5.7497778381
  O        -7.3036702904       -7.1355016303        2.9869479497
  O        -3.8967169230       -7.1349127642       -7.8409244827
  O         7.0128718785       -8.7951638641       -3.3380164366
  O        -7.3353805055       -4.3056200929        9.2286347738
  O         8.8939023369        5.9968011167        7.8042942337
  O        -4.0231127183        2.2197876584       -5.9733742005
  O         4.9007121629       -5.2418866057       -3.4705343970
  O        -6.8123099876        6.0212164864       -5.0791859688
  O        -5.7452585436        3.3945597496       10.1132330442
  O        -2.0238608730        9.5491148477        8.0818948606
  O         5.7375915027        2.6106629360        6.8344418049
  O         4.3639279490        3.5281728237        8.7795448082
  O         9.6811723703        1.8032905475        9.7262149503
  O        -2.6677601553       -6.0686893420        9.0448970882
  O        -7.5775373365        7.1961880235       -7.2220282402
  O         4.8169699841       -0.0721539383        9.9412400160
  O         6.1259717764        8.7108636416        9.2609099463
  O        -0.1449050553        3.6041067818       10.4877817143
  O         5.7527026533       -7.1441774450        6.4530174417
  O         4.7736448729       -7.0572237607       -5.3691166318
  O        -3.3542067340        4.4994470355       -7.1397125572
  O         2.3703164168        8.0710690171        9.7637137592
  O         8.3511480958        3.1199399152       -7.6589613624
  O         0.6456517304        4.8407840137       -6.7980334730
  O        -8.5700329679       -1.9193593481       -5.5568259669
  O         9.4095468712        2.2622611346        4.7531677709
  O        -4.9679940454       -5.5721913970       -6.1297868072
  O         4.6687247290       -7.7857538447       -2.7598593190
  O        -8.1494679484        8.6148265127       -5.2017041788
  O        -1.9923801578        9.1203370491       10.7763603308
  O        -6.2315229836        7.5301080939        8.3804786586
  O         3.3035316773       -6.2380421186       10.4453677972
  O        -7.6007056570       -1.4441623797       -1.0327154904
  O        -6.0650975428       -5.0617339597        7.0842038864
  O         0.1754867355       -6.8537493784       -5.0019509632
  O        -6.9935150628       -4.1079945469       -5.5159124721
  O         6.6283219978        0.3978328454        8.1678004008
  O        -8.8908711130        0.6610793998       -5.4196822892
  O         4.2038920196       -4.5482950625       -7.3260068068
  O        -9.5002622386       -4.5837297667        1.0954440006
  O        -8.2012294701        4.8924137370        0.9898050726
  O         4.4436795570        4.7601585850        6.4992338345
  O        -6.7501869009       -9.9239747505       -0.9895582833
  O        -6.7981400600       -9.2060836646        8.3593350748
  O         4.1772740842        7.2823226594        5.7607158142
  O         6.5555438359       -2.7698939892       -7.0757495822
  O         3.1622428915        3.1083892778       -8.4426683201
  O        -1.1899833972        5.0908678154        8.5040429654
  O         6.6106266121       -5.9194210727        8.6456969601
  O        -5.3389262092       -0.0816683053        7.3884547031
  O         9.9728125256        4.1177615080       -4.3685456885
  O        -5.8348760423       -5.4065030661        4.4322383566
  O        -7.4470865425       -9.7839192035        3.0613869584
  O         7.4579670467        1.0364337764        5.6147561184
  O         9.4819846736       -2.8791139799        3.0424989304
  O        -0.6023037318        6.7928824172       -7.5895851846
  O         7.3181090838       -8.5413062372        8.2508475170
  O        -7.5302744015        4.8794571342       -2.6046508818
  O         8.8533822741       -4.5972273743       -1.2627590619
  O         6.0169050288        6.1470111287       -2.6736942135
  O         9.1563251683       -5.9901602527       -6.3607813898
  O         6.0307577558       -3.6698879517        9.9664527041
  O         5.9163359143      -10.3471497444        6.7740481165
  O         8.9170735987        3.5687331065        0.8806476791
  O         8.1216443853       -3.7273291483        8.1043016653
  O        -4.8344292717       -1.8764091635        9.5204104167
  O         6.0838101578        2.5758774029       -6.3614785988
  O         6.3246396513        8.9176834385        1.6533587610
  O        -6.1684289943        8.8314370908       10.6911978513
  O         1.6218765760        7.5672571359       -6.5109687494
  O        -7.5351691146       -6.9890560313        9.3931337027
  O         7.1587195947       -1.8540815092        3.7661779721
  O         4.1354575249       -7.1641108570        4.5619531117
  O        -7.1770195933        5.1124539990        7.6077207099
  O        -8.3039112062        2.0407037996        0.4258335419
  O         4.8036834021       -7.7841606186        8.8119468390
  O         9.0284342798       -6.9479655354       -0.1676655835
  O         9.1243185601       -7.5466896580        4.8020193613
  O         6.8110655189       -6.5062843474       -2.0642491515
  O         7.0588289010       -3.6707003916       -2.6629091754
  O        -0.4436041217       -8.9710652445        6.1977801947
  O         9.8295650438        6.4272741973       -5.6619625027
  O         7.3386965356       -0.7682485741       10.5524943571
  O         0.5479219045       -9.7923398266       10.9175175495
  O        -2.5094525937       -6.6234308561       -5.6754516877
  O        -1.5917942596        8.6970020333       -5.9596209089
  O        -3.6469374182        4.6067052167        9.2029542767
  O        -7.0714304746       -6.3392942010       -3.4211131825
  O         7.5938578742        5.3895593412       -4.6625900628
  O         2.9067718253       -8.8949588147       10.1625492251
  O        -0.9565716870       -8.2427193395       -6.9140550445
  O         6.3839540043        8.5662646974       -4.9016616914
  O         5.9924321504        8.4525082272        4.1715750320
  O        -0.9713082984       -7.8124156027        9.8796327521
  O        -8.5075356040        7.4642849359        7.1032077053
  O        -0.7760693305       -3.0046952367       11.4396187970
  O        -8.5356964139       -8.5988953543        0.4162317659
  O        -5.4082632412        3.8244691208       -4.3664692731
  O         8.1657719341        2.5665986121        7.7788202867
  O        -5.1484404268        5.8744761950       -2.8763605776
  O        -0.2990293680       -5.1377333313        9.8115850872
  O         8.3371356226       -9.6300162175        0.2741518752
  O         6.1000845965        7.6716052389       -0.4158956074
  O        -6.0549452103        9.6426256879       -3.6761817023
  O         8.6838526312        7.1224096104        5.4358158007
  O        -3.8656596296        7.2570216421        4.8295435714
  O        -3.9441417602        1.4822742490        5.8233707022
  O        -5.5528759304        8.7477505615       -6.2166688829
  O         8.8891644726       -9.6697763067       -4.9717341980
  O         7.4593176587        6.5017240989       10.1838405467
  O         1.9338667289       -9.0256688842       -5.6036070222
  O        -6.9722606385        7.6225811331       -2.7514508682
  O        -5.8511017283       -0.8758201606       -7.6286171665
  O         2.0106553460       -7.8024488141        6.2076322237
  O         6.7172692395       -6.1990406281       -7.2732024975
  O        -8.1672152619        2.2484870203       -3.2492463538
  O        -5.0538677944       -8.4733481388        3.7264488283
  O         8.6724076971       -5.4807371798        3.4081198263
  O         3.8498420625        8.5571421751       -5.7002059283
  O        -8.1006544679       -8.1976939742       -5.2790411682
  O         3.1562152777        0.5248150623       -7.4115454090
  O         6.5288659589        4.9587574769        8.3457031558
  O         5.7539926642       -0.3439423618       -6.8557100732
  O         2.3362883010       -6.4867876148       -6.5290369084
  O        10.3507590079        8.8567369727       -2.5575680409
  O        -8.5267692729        3.1693320101        2.7711803911
  O         4.8764157621       -8.0192679259       11.5460790182
  O        -6.4614154129        3.2990147629       -6.6868151727
  O         5.9726886516        7.8818358199       -7.5065181753
  O        -9.1281382204       -9.1342500796        9.5546541819
  O         4.0116146099       -2.1273623897       11.2879355060
  O        -8.1142565741       -4.7012867111        3.1874793812
  O        -3.6450699908        8.9072878549       -4.4152624383
  O         3.5905390979        5.6417472242       10.1985132754
  O        -6.4435248471       -2.3874219740        7.5246214660
  O        -5.4015085638        9.2544244869        5.7300365792
  O         7.8833028020        5.5024497474       -0.7658466718
  O        -6.1675224188        2.6488671182        7.0096589383
  O        -0.0472526891        6.3582233450       -4.8395272916
  O         5.7580426751        4.2516528865       -8.3703802083
  O         5.3333696038        3.9788658397       -4.2644444397
  O         9.5880834116        3.7103833699       -1.7335975674
  O        -3.1750581766        6.0696470691        7.0243812231
  O        -1.4488648135       -8.7122846704       -4.3106597376
  O         1.1226112433       -2.9908968749        9.2341236697
  O         1.5735022333       -4.3182427608       11.4745945713
  O         8.1111640783        9.1253897574       10.8112305124
  O        -1.3717356918        2.8334457427       -6.6477541983
  O        -9.1508763980       -9.4625742786       -7.3351233257
  O        -3.1153897829       -9.1254279203        5.5768755011
  O        -7.8326598442       -0.2160432965       -3.2356536953
  O         9.4725509304        4.9565811686        4.0287632795
  O        -4.2888172124        9.2865167528        9.0636280774
  O        -3.2333661216        2.5004874206       -8.5466413981
  O        -1.5958202754        5.5957461414        4.9564173324
  O         1.1498672963        2.1492045621       -7.0508296120
  O         8.3923677364        8.5949067195        7.6516246964
  O        -2.9501496827       -4.7127547474       11.2103149709
  O         1.0089489373        5.8195240484        9.7467148537
  O        -7.1176181407       -5.4652407713       -7.7818721042
  O        -8.5660188662       -3.8499407363        6.9799982711
  O        -6.2390260191        6.7985871745        5.9036033616
  O        -3.6140489849       -5.1487419435        5.9295829791
  O        -4.0510579473        2.2168218599        8.3480419430
  O        -8.3602224440        3.6958859471       10.9894712363
  O         7.3623079179       -5.4118317342       -4.4713798035
  O         8.6236146986       -7.5945205508       10.9186046106
  O         9.0773251967        4.4812562870        9.6379721141
  O        -5.9996124836       -8.6360817504        1.2776948541
  O        -8.5954127505        3.0520981169        7.8771617243
  O         6.0185247921       -8.9662202633       -0.7859259300
  O         6.8578377018       -8.4971192871       -6.0162030638
  O         8.8344875896       -7.9603139976        2.1723733520
  O         2.3408361372        5.6447115722        5.0842434416
  O        -9.7346151655       -6.5784271533       -3.7318793710
  O        -6.3759349557       -7.3615199670       -0.9056373522
  O         9.6004041703        6.2225562055       -3.1632066752
  O        -9.6177802021        0.7042649039        6.9387705953
  O         2.5804421042       -6.9058198902       -3.9280724556
  O        -9.6409619362       -4.1495045905       -4.6569729877
  O         9.3531886904       -0.6031322815        4.6603164160
  O        -5.3539208214        6.3832028604       -7.6963883253
  O        -2.5329041391        7.1230416487        9.4139753650
  O        10.3475572773        6.7387228978       -0.7372016520
  O         1.1676615956       -9.2523654830        8.3198464688
  O        -8.1667006175       -8.5240654261       -2.7218022522
  O        -7.8369902956        3.7576614833        5.2929061944
  O        -1.1126078617        8.2068803374       -3.4809014794
  O        -4.6232873307       -8.1964419601       -5.4798140877
  O        -4.2729687605        6.1615694775       -5.2601199045
  O         8.1132692165        7.9047078535       -1.7895243336
  O         2.6474887888        6.3227546844        7.7347988750
 Si         2.9995436239       -8.3436476313        4.9673779838
 Si        -6.8222494871       -5.6654194753        9.9922203797
 Si        -4.0539546590        5.9495771991       -6.8388725927
 Si         6.3500417023        0.3779838220        9.7614761160
 Si        -9.6728644250       -5.4898119410       -0.2722369639
 Si        -9.4231208521       -6.8570180517        6.0135784977
 Si         9.2215766327        6.5994149244        3.9996296125
 Si        -8.0494927057        7.0588979401       -5.6835284013
 Si         3.9776743419       -7.6989434949       10.2545787708
 Si        -2.9620560467        2.9782994834       -7.0139512898
 Si        -9.0489991298       -9.5065587792       -5.6849326302
 Si         6.0440380132        5.4434297092       -4.2280708391
 Si         3.3426727723        5.9460934637        6.2889487999
 Si        -7.1472174135       -0.2353400037       10.9625915401
 Si         8.2930742874       -6.1966241194       -7.6874868691
 Si         6.1971852887       -7.3657834331        8.0298500692
 Si        -7.3629806885        9.2187967946       -2.5334616553
 Si        -5.0630265340       -5.7204225905        5.9627662986
 Si         4.3097097587        4.1441957728       10.3226023017
 Si        -4.8984566082       -2.0380270574       11.1584003321
 Si        -7.0759297219        6.6745005929        7.2899256833
 Si         2.2308712823        8.7080318091       -5.4277364593
 Si        -5.4774793446        5.4800697428       -4.3750077607
 Si         5.2056840343       -3.3367796712       -8.0537423446
 Si         6.9465743305      -10.1180166639        7.9433958688
 Si        -7.3254626826       -5.8659475291        4.0116108621
 Si         4.9987324083        2.5770629889       -5.1200662054
 Si        -1.8169286001        7.8476970297       -7.3383088512
 Si        -8.2768546066       -3.3085951138       -4.7569275094
 Si         5.3008895000        3.9881532078        7.5691744450
 Si         4.2659604537       -6.6929077169       -3.9234567220
 Si         7.0167792314        1.6487805380        7.0352264838
 Si        -8.6645213675        3.7907984835       -2.9316544197
 Si         9.1954582592       -3.9911010923        6.8643977222
 Si        -6.8453715486       -6.0589239129       -1.7811666798
 Si        -2.3218059052       -3.3720799783       -7.4110030279
 Si        -6.5940648895        6.2190626776       -2.0908217163
 Si         9.4841975135        3.2341053217       10.5447567181
 Si        -8.1950039358       -8.3047000582        8.5971698401
 Si        -2.8062694256        8.6953090483        9.1950869336
 Si         0.4259602281       -3.7470774968       10.4272930982
 Si         8.6559960020       -2.0934866563        4.2687731185
 Si        -4.9259259933        1.5886989730        7.1220767332
 Si        -6.9296764736       -8.6474663429       -0.0624341831
 Si         2.8141146324       -5.3232536943       -7.6179399820
 Si        -5.9856688170        8.9528793256        9.0763449232
 Si        -8.2562908511       -1.6044409032       -2.4499438219
 Si         5.3539685483        7.8528439493       -5.9085833252
 Si        -8.2458101760       -7.4448071915       -3.8349719911
 Si        -7.5421681948        7.9847300733        2.9538794901
 Si        -5.3646312150        7.7789705151        4.9842335309
 Si         0.3012517798        7.4474469010       -3.5402716530
 Si         6.1629176240       -8.0074365205       -2.2015354486
 Si         7.9208819837        5.5038693065        9.0153161666
 Si         8.9551530392       -5.5899430324       -4.7846189774
 Si         7.3154098650       -4.6180064285        9.3017830691
 Si        -2.0008464352        9.1474813921       -4.4412707186
 Si        -4.6556606150       -8.7293242909        5.2595378876
 Si        -0.7549499881       -8.8448578927       11.0614297463
 Si        -6.9473932727        3.0018512066       -8.2157742115
 Si         1.7503611376       -7.3444451434       -5.2971935419
 Si        -6.1106250249        7.8403930816       -7.4384777987
 Si         9.1763905285        5.4550449812       -4.5472404558
 Si        -7.4601120013        3.6539565837        6.9045257853
 Si        -0.9956920249       -6.3711328404        9.0433362493
 Si         9.1537989366        0.8176357469        5.4165878762
 Si         9.3049903329       -8.3601171743        0.6146054032
 Si        -5.0445750251        9.6973724551       -4.9082798901
 Si         0.1526851317        4.5721478569        9.2049686464
 Si        -2.6954353443        5.6642933813        8.5246141136
 Si         6.6996290719        2.9102800103       -7.8232925526
 Si         5.7984700052       -7.4195707816       -6.6609246519
 Si         2.7792719949        2.1125583096       -7.1742109148
 Si        -1.2074459254       -7.5645439599       -5.4158475775
 Si        -5.5768246240        2.6509923558       -5.4677426777
 Si         6.9465836445        6.7532164759       -1.4620393025
 Si         8.3637609204       -7.0843145541        3.4614883543
 Si         6.8928290469        8.0219192232       10.5460060126
 Si        -6.1345430953       -4.6274759913       -6.7542646053
 Si        -9.3775528089       -0.6895074395       -6.2805072003
 Si         0.6582858005       -8.2359997012        7.1662014642
 Si         8.2947406037       -3.1242126421       -1.6797651220
 Si        -4.1826277815        3.1532191674        9.6842205528
 Si         4.3560441655       -0.5174151554       -7.9092943064
 Si         0.5035023781        6.4086181720       -6.3856813453
 Si        -7.1046288532       -3.9365305606        7.6151705097
 Si        -2.5655719816        6.7222981429        5.6731003505
 Si         5.0505264338        8.5883668072        5.4725090735
 Si        -4.0523800649       -6.9537961687       -6.2678599997
 Si         7.2662761896       -9.5166171130       -4.7852645630
 Si         1.7591102734        9.5730948511        9.7405612749
 Si         6.7352610329        9.2010362787        0.0923460490
 Si         7.1071727209       -1.2184399479       -7.2191424221
 Si         0.1015673511        3.3725246595       -7.3089250459
 Si        -9.6561905272       -4.4267115968        2.7184048273
 Si        -3.6611900683       -5.9057887819       10.3588388861
 Si        -7.8506804107        1.0288993154       -4.2452602277
 Si        -7.8645200107        6.3414111223        0.3618219628
 Si        -6.4425464524       -8.5390590199        2.8270330203
 Si         6.4734967973        7.6908059209        2.8034010229
 Si        -1.8575436128        9.6112388806        6.4260409429
 Si         8.3481953133        3.8831559311       -0.6184647623
 Si         5.6921912585       -6.5884605413        4.9058244461
 Si         9.2739810542       -9.0921757511       10.8689391710
 Si        -9.7368865658        1.8938040715        8.0995197709
 Si        -9.0573600839        3.5426148492        4.2671935737
 Si        -5.8962222753       -1.2107349304        8.4614185135
 Si         9.2132392363        7.3190774856        6.9761868068
 Si         6.5101296991       -5.1977525532       -3.0498660422
 Si         9.6712033215        7.4489477948       -2.0458328291
 Si        -8.8098892117        3.3670450810        1.2006863346
 Si         2.4446354828        6.4389949611        9.3596526887
 Se        -2.3389027418       -1.6609225043        3.8780464287
 Se        -1.9291852114       -3.7120060595       -5.1719771377
 Se        -4.9684236652       -4.6007161893       -1.3944881356
 Se        -2.0816542820       -5.7660045683        2.3112635067
 Se         1.3301564811       -5.3456462796       -0.0883352515
 Se         1.7410621116       -8.1925463305        3.0121467938
 Se        -6.4574932791       -1.7949032600        2.2712873123
 Se        -4.1519254291       -0.8122530578       -4.5893495037
 Se        -4.6954186612        1.1444117324        0.0168007820
 Se        -1.8236319305       -0.4288093644        8.4088035391
 Se         3.7184593491       -0.5438981794       -0.7573495537
 Se        -2.3212062500       -2.1276424180       -0.6945640114
 Se         1.2369653091       -1.8786093575        1.6054388501
 Se         0.8426097529       -4.3974480651        5.1656496089
 Se         5.3357486130       -4.9072866648        0.5511914053
 Se         5.8294158262       -4.3926961613        5.0026728041
 Se        -2.3570572232        4.2442355269       -1.9637910550
 Se        -4.1488680186        4.3855561693        2.5465177049
 Se        -0.5545863353        1.9135121287        4.6022415814
 Se         0.3534148310        0.1223720806       -2.9598261446
 Se        -0.8552156237        1.7433897396        0.6682358882
 Se         0.4985993683        4.9101702404        2.1399594726
 Se         1.2368181323        3.2793489550        7.7107888122
 Se         5.1389219262        0.7946164633       -3.8816693720
 Se         3.7450811697        2.1727682676        2.8378128113
 Se         1.8409533138       -0.1632139090        6.0626600843
 Se         3.8512979673       -1.4956719147        6.5816446901
 Se         7.9686137767       -1.7634356307        0.1291559961
 Se        -1.8952191499        8.2579218651        0.9924379724
 Se         2.7892538299        8.3456518953        0.6643519148
 Se         2.6466815140        3.6578846377       -1.4281641251
 Se         5.5047077959        5.6533349908        2.7148123518
 Se         6.4370511046        2.7259746595       -1.1861040165
 Cd        -6.5973426865       -3.0556972702        0.0833271387
 Cd        -4.2189125526       -3.2622211824       -3.5670441405
 Cd        -2.7003061909       -4.1348808484        4.2126009509
 Cd        -2.7740414736       -0.5568296534        6.0203325281
 Cd         3.0100719935       -3.3046593616       -0.2466994918
 Cd        -0.8719582001       -4.0583670790        0.6198335545
 Cd        -7.3784449030        0.1840216664        0.5590292137
 Cd         1.1589733631        2.2745084825        2.4082923314
 Cd        -3.9276839648       -1.1388604185        1.5021042885
 Cd        -0.7568545847        1.6337508390        7.3392303314
 Cd        -1.2943716660       -1.3229352308       -4.3661238703
 Cd         4.9624824264       -0.9824229465        4.2563827163
 Cd         0.3193273086       -6.0404851537        3.1974515702
 Cd         3.3512865940       -4.1167029092        5.6112470924
 Cd         3.6730537571       -0.3136242004        1.9079046829
 Cd         3.3622099315       -6.1173938768        1.6361439101
 Cd        -1.5812333454        6.6343878316       -1.0908986697
 Cd        -3.1819939209        3.2815491110        0.3038469761
 Cd        -2.9518383515        2.8559545189        4.1506238171
 Cd        -4.2846182540        0.0160390628       -2.2142706871
 Cd         0.0464192468        3.1588655803       -1.3211137245
 Cd         0.0579725180       -0.5883170078       -0.3377458845
 Cd         0.5111673546       -1.6093571001        7.8553541004
 Cd         2.9203800783        1.0375297406       -2.7916763352
 Cd         6.2792791518        0.0227031242       -0.9603635930
 Cd         0.2729571768        4.4631002737        5.1346290858
 Cd         5.9457495759       -2.6137488643        1.9199411613
 Cd         0.5228343847       -1.9523019883        4.1546624388
 Cd         2.2454480645        6.1586536858       -0.8631257843
 Cd         0.4414056385        8.8933919474        1.1717672909
 Cd         2.8874222004        6.0975303008        2.8682812439
 Cd        -1.9252777426        5.8509392076        2.4367374039
 Cd         4.5950528141        3.4307174868        0.6882511705
