402
 i =     7300, time =    14600.000, E =     -5882.4053852648
  O         6.8397768560        2.2563654769       10.4948350535
  O        -5.4453374208       -3.2547347058       -7.6598099870
  O         9.1713195693       -5.3273040863        6.7145425382
  O        -7.5448174199        7.7862532924        1.5464956264
  O         1.4955825217        8.9849201215       -3.9218370479
  O         8.0713772939        7.5630147960        3.2225356766
  O        -5.9935140572        7.7878353416        3.6385913476
  O         5.3507688790        6.7689030151       -5.3005969351
  O        -7.8756585400       -4.9969078241       -0.7097824148
  O         8.8802247958       -2.8059304473        5.8121441789
  O         9.4313331339       -1.8219899657       -2.4729724723
  O        -3.2571935777       -1.6940603970       -7.8137865643
  O         8.5372146364       -0.5493006107       -6.3865829940
  O        -4.9044761196       -5.4987456536        9.5700647705
  O        -7.1119512763       -0.3879176310        9.5806624368
  O        -6.5894828078        6.3240021952       -0.3081706280
  O        -0.0842886419       -6.6407663100        7.6490292227
  O        -6.4391020842        1.7415133617       -4.7372225974
  O        -1.8121937202        8.5106507177        6.0465308724
  O         8.4735693463       -4.6956520333       10.7004864540
  O        -8.0538232251       -6.0899408896        5.3651749609
  O         6.7454222011       -6.8993729363        3.7770031671
  O        -8.6035579325       -0.3467704191       -7.6401759907
  O         3.8645507927       -9.2527500169        5.2841888888
  O        -7.5929330496       -2.7384332556       -3.1710378056
  O        -8.6663824312        7.3498337452        3.8095957832
  O        -3.0948401048        7.4545300426       -7.4596254613
  O        -7.1383733251        1.7498426469       11.0686555259
  O        -5.2030519161       -7.1263833000        6.2353344003
  O        -8.7265935059       -7.5421784790        7.2857428537
  O         0.4974180079        7.2325441921       -2.0079038430
  O         3.7003230806        2.8517206315       -5.6858555622
  O        -7.3154915169       -6.9941141441        3.0155375785
  O        -3.6214065529       -6.8134808989       -7.9836636593
  O         7.0720068573       -8.5618750103       -3.1783384649
  O        -7.0444825978       -3.9953737341        9.2718120483
  O         9.0010370132        6.4242972248        7.9588541597
  O        -3.9521947785        2.7105702737       -5.9856581758
  O         4.9805698410       -4.9407571171       -3.3997728411
  O        -6.8472432565        6.4417307930       -5.0481913297
  O        -5.8566115512        3.7598135498       10.0693082319
  O        -2.0736087866       10.1085224155        8.0841264155
  O         5.8337208054        3.0237042519        6.7847094149
  O         4.4862460201        3.9343380864        8.9064841477
  O         9.6153762922        2.1036260408        9.7760574747
  O        -2.2747310337       -5.9770393422        9.1061475156
  O        -7.7083969545        7.5527231045       -7.2393720407
  O         4.9418795973        0.5629737848       10.1972918586
  O         6.2923064253        9.0165978704        9.2860873335
  O        -0.0872415714        3.8549551340       10.5218076042
  O         6.3038462780       -6.7906244081        6.4655255323
  O         4.8205340243       -6.5341476371       -5.4910163901
  O        -3.4897693095        4.9313122893       -7.3091419591
  O         2.5088113084        8.3065208470        9.7037248049
  O         8.5056600958        3.3534932400       -7.3224552613
  O         0.7222630075        5.1665554170       -6.5146611922
  O        -8.5289260983       -1.7979700183       -5.5069712173
  O         9.5753753434        2.4037491342        4.8702790381
  O        -4.7739757290       -5.3858570710       -5.9093510051
  O         4.7184811669       -7.4837144281       -2.8373881858
  O        -8.4106859954        8.7029515714       -5.1237061503
  O        -1.7932702856        9.4768820867       10.8349696169
  O        -6.0064782399        7.8793762377        8.5453625668
  O         3.1623253747       -6.0126469167       10.4570000495
  O        -7.8674615171       -1.2485135677       -0.8338964490
  O        -6.2050307948       -4.7002131617        6.8434744848
  O         0.2236808528       -6.4837444178       -5.0106693560
  O        -6.9299117947       -3.9060013227       -5.4901334925
  O         6.7674139571        0.8799378016        8.2265517340
  O        -8.9030133634        0.9436142785       -5.3349716572
  O         4.3129512077       -4.2604337472       -7.2533705462
  O        -9.6255459350       -4.2828506510        1.1719008126
  O        -8.4588748166        5.3447373380        1.2080671318
  O         4.4730340815        5.1283265432        6.5191687072
  O        -6.7057509146       -9.7585674804       -0.9505365378
  O        -6.7907870468       -8.9700962948        8.3705996039
  O         4.5150927100        7.7317921480        6.1152953164
  O         6.5788863006       -2.3688288188       -7.1340370979
  O         3.4143917061        3.4236936706       -8.1602726767
  O        -1.1846874641        5.5011442706        8.7260884351
  O         6.9931881665       -5.6275824910        8.7403716293
  O        -5.4672413672        0.4745754283        7.7625244668
  O         9.9569684159        4.2229367139       -4.2754111890
  O        -5.7058311853       -5.2748044410        4.3951311200
  O        -7.5795731261       -9.5553221359        3.2047665328
  O         7.5363626037        1.0552319357        5.7916414451
  O         9.5246324226       -2.6563426931        3.3547600145
  O        -0.4563869670        7.2564164017       -7.3945013171
  O         7.2809077379       -8.2014445571        8.2854531128
  O        -7.5057070733        4.8378974175       -2.2286174637
  O         9.1157576577       -4.2272900239       -1.4248807290
  O         5.7554675021        6.4680107268       -2.6743489862
  O         9.2691313601       -5.5119678622       -6.3177372300
  O         6.0758882323       -3.5021210290        9.9898812666
  O         6.1126871323       -9.8621606370        6.6654356891
  O         8.9275049007        3.9034574127        0.8262642955
  O         8.4550283398       -3.3667927735        8.4083514643
  O        -4.9466624429       -1.7111687047        9.5855880454
  O         6.2816973373        2.5416844090       -6.2469052336
  O         6.5060816884        9.1475935430        1.6552970666
  O        -6.4498259826        9.3789761717       10.7057746769
  O         1.7863682225        7.9477419578       -6.3298438440
  O        -7.4212869955       -6.6116990748        9.4317963899
  O         7.3100931783       -1.5085633655        4.0432689436
  O         4.1823096580       -6.6277498124        5.0027790890
  O        -7.0182516594        5.3058608318        7.7093317237
  O        -8.2211332762        2.5748698089        0.4907070955
  O         4.8581220541       -7.2075869304        8.7179315756
  O         9.3866450907       -6.5890331987       -0.1588775933
  O         9.0525318636       -7.4217990523        4.9478520964
  O         6.8764508783       -6.1792056686       -1.9521305345
  O         6.9868314432       -3.3921373956       -2.4997636979
  O        -0.3628238247       -8.7117014699        6.1268475730
  O         9.9096035658        6.2552560153       -5.8991689712
  O         7.3502578038       -0.3402779752       10.5685312749
  O         0.8751085465       -9.5367463761       10.9574533144
  O        -2.4626447223       -6.4484449610       -5.7776047129
  O        -1.6958490784        8.9875739692       -5.8744822367
  O        -3.8397891003        5.1619346335        9.1544295399
  O        -7.1945397305       -6.0132586103       -3.2631650549
  O         7.6774014388        5.9086527192       -4.4557684904
  O         3.1399618976       -8.6168617643        9.9190657915
  O        -0.7644815694       -8.1613503214       -6.8428647166
  O         6.4418489890        8.9217856151       -4.8411028546
  O         5.7983268292        8.8547979673        4.0074167911
  O        -0.4688840128       -7.5310637162       10.0170636013
  O        -8.2595446902        7.7585942981        7.2306631798
  O        -0.7519935955       -2.7017393768       11.0280826145
  O        -8.3804651913       -8.3828742336        0.5827215682
  O        -5.5207424506        4.2001294963       -4.4284575327
  O         8.2845358132        2.9137525878        7.6023382120
  O        -5.2954248778        6.0690593632       -2.7880511112
  O         0.0134173132       -4.8705691621        9.7178139915
  O         8.4361711728       -9.2688702593        0.0472765603
  O         6.4308105690        7.9761770827       -0.4461179902
  O        -6.1357810960        9.8729270876       -3.6158557614
  O         8.9677466944        7.5972519999        5.5879642680
  O        -3.7446052354        7.5408746760        4.7478073199
  O        -4.2074403017        1.7164850769        5.6661583358
  O        -5.6643449929        8.9217684902       -6.1379315473
  O         8.8913556023       -9.3376950097       -4.8427316564
  O         7.3078463915        6.8078228900       10.2235778869
  O         1.9775576036       -8.5801924218       -5.6749076015
  O        -7.0638327199        7.7721437582       -2.5944670386
  O        -5.7902814137       -0.4934210005       -7.4996903585
  O         2.0604122421       -7.6075928225        6.3518022594
  O         6.8072439442       -5.7893426984       -7.1067970182
  O        -8.2828302884        2.4173868400       -3.0181936506
  O        -5.0945578434       -8.2298873966        3.8375075954
  O         8.7462215500       -5.2933207633        3.3875606276
  O         3.8789152225        8.9935502225       -5.6342738761
  O        -8.1208504869       -8.0294494161       -5.1105471330
  O         3.1190233772        0.8062034874       -7.2495773910
  O         6.7292197529        5.2698144192        8.1350968189
  O         5.6369223486       -0.1443780382       -6.7173628653
  O         2.1688677395       -5.8786053019       -6.5877579960
  O        10.2971734598        9.0578516998       -2.4087641689
  O        -8.6927383732        3.5794378038        2.8683229179
  O         5.0284518164       -7.5199139597       11.4177694916
  O        -6.4872554754        3.6245251239       -6.6662620983
  O         5.8211813845        8.3631019890       -7.4825526362
  O        -9.1136089450       -8.6458989291        9.6643309579
  O         4.1985425001       -1.7516527475       11.1257414143
  O        -8.0501818904       -4.4600936322        3.2507724882
  O        -3.7045496573        9.3129259440       -4.2151009890
  O         3.7035390444        5.9718596123       10.3430948560
  O        -6.5569836860       -2.0735492713        7.5497670540
  O        -5.2661449317        9.4244991931        5.8123215641
  O         7.3419570503        5.5468252348       -0.6366664675
  O        -6.1165206607        2.9713873457        6.7084327616
  O         0.1084362847        6.8139850629       -4.7124854286
  O         5.7819075145        4.3840539922       -8.0519500975
  O         5.6246538831        4.2778631794       -4.3031529071
  O         9.3060861433        3.9839834150       -1.8435270971
  O        -2.9993142548        6.3451389130        6.8659777567
  O        -1.6002842869       -8.3260508835       -4.1740518876
  O         1.2701050722       -2.4589652171        9.0428813957
  O         1.6552673954       -3.8144493690       11.3601428205
  O         8.2358429534        9.3702671108       10.9452062816
  O        -1.4865443183        3.2852006438       -6.6858524060
  O        -9.1535559776       -9.0985070335       -7.1948454844
  O        -3.0492689686       -8.4505942338        5.8039506873
  O        -7.8541426400       -0.0996160830       -3.1760529312
  O         9.2007542030        5.2711711820        4.3087111595
  O        -4.3029725895        9.7869969122        9.3711587613
  O        -3.4479067696        2.8149660179       -8.6942856511
  O        -1.4309023271        6.2006946940        4.7278924759
  O         1.2338664861        2.5826506540       -6.8489366806
  O         8.5634037003        8.8994356991        7.8177887620
  O        -2.8136544984       -4.2963641811       10.9698078130
  O         1.1863675856        6.0601039944        9.6954799435
  O        -6.6024944285       -5.4762003545       -7.8106959340
  O        -8.5234339679       -3.5678649743        7.2339619468
  O        -5.9952611092        6.9458593346        6.1074314199
  O        -3.6613753288       -4.8448546694        5.8675951920
  O        -4.0933420686        2.6355454938        8.2467856597
  O        -8.3881822499        4.0747645560       10.9600122002
  O         7.4832161322       -5.0872677352       -4.3504152194
  O         8.4531658009       -7.3635795564       11.1722986891
  O         8.8803288356        4.6851936000        9.7495871100
  O        -5.8736549797       -8.5302815297        1.3455655900
  O        -8.4112809700        3.2078368900        7.9869764042
  O         6.0748814692       -8.6328444196       -0.7599516077
  O         6.7230982951       -8.0895371170       -5.8725681232
  O         8.9785310783       -7.6914060070        2.2547024071
  O         2.5205953876        6.3351546521        5.0799820619
  O        -9.6470746050       -6.4277889439       -3.7671782065
  O        -6.3413480160       -7.1665467253       -0.8532193773
  O        10.0650467705        6.6046808423       -3.4224452991
  O        -9.3566112004        0.9057408144        7.1191209832
  O         2.6425526622       -6.4532310278       -4.0232696367
  O        -9.4959141448       -3.9012523335       -4.3812404269
  O         9.6283041515       -0.3999877032        4.8665675159
  O        -5.3711461604        6.9234266225       -7.8079219991
  O        -2.7279712334        7.5895808952        9.1902993753
  O        10.3134328954        7.1138219034       -0.6890859065
  O         1.1852928712       -9.0567263172        8.3381748823
  O        -8.1129458380       -8.2983630434       -2.4612520557
  O        -8.2231866478        4.2207019643        5.6189842276
  O        -1.1710872022        8.6498872142       -3.4054670109
  O        -4.7529603386       -8.0197580864       -5.6294219815
  O        -4.2973183104        6.3778972175       -5.3652033441
  O         8.1835830064        7.5675292627       -2.1037550735
  O         2.8672644313        6.7008599825        7.7242266639
 Si         3.1090815740       -7.8527123375        5.1002160444
 Si        -6.4875331808       -5.3997728810        9.9260529913
 Si        -4.1216391479        6.3650260158       -6.9824702012
 Si         6.4938376767        0.8473686546        9.8394832287
 Si        -9.4929592368       -5.1011717335       -0.2636809085
 Si        -9.4080080657       -6.5963005870        6.0357722323
 Si         9.2304519840        6.8477455663        4.1575307400
 Si        -8.1120005158        7.2011575737       -5.7390267112
 Si         4.0728037736       -7.3276981097       10.0957314902
 Si        -3.0615357444        3.3614324776       -7.1987037612
 Si        -9.1192767301       -9.2843999613       -5.5569963464
 Si         6.0729393333        5.9008425743       -4.1991263195
 Si         3.5718218359        6.4339098008        6.2741538967
 Si        -7.1812662181        0.0990162284       11.2065325763
 Si         8.3339712049       -5.8881309680       -7.5471391314
 Si         6.3190833188       -6.9176842508        8.0997114280
 Si        -7.4543231398        9.3942644002       -2.4511015318
 Si        -5.1331618842       -5.5048292479        5.9242699759
 Si         4.4065434407        4.4715011859       10.4370966622
 Si        -4.8885307857       -1.7985017244       11.1700851319
 Si        -6.8402373890        6.9726103687        7.4719504375
 Si         2.2878024851        9.1660325079       -5.3775213719
 Si        -5.4863798698        5.8265432937       -4.4254941658
 Si         5.2840689079       -2.9894944196       -7.9499920185
 Si         7.0569287143       -9.7787078297        7.9844082754
 Si        -7.2622605522       -5.7041992405        3.9829052071
 Si         5.2927332528        2.8315023499       -5.0121748847
 Si        -1.7333413897        8.2503645235       -7.2999882242
 Si        -8.1005514111       -3.1192209868       -4.6539421148
 Si         5.4352842643        4.3856146428        7.6031669681
 Si         4.2502741152       -6.3423551788       -3.9363387127
 Si         7.0373298749        1.9960817720        6.9903314618
 Si        -8.7224411521        3.8972237207       -2.8141795157
 Si         9.2925621430       -3.7395097137        7.0667445305
 Si        -6.7635671586       -5.7924485195       -1.6467940036
 Si        -2.2346221758       -2.9637148750       -7.6607602546
 Si        -6.7434719397        6.3217054888       -1.9698769208
 Si         9.4759767869        3.5084916878       10.6736187847
 Si        -8.0657579857       -7.9442308545        8.6619650646
 Si        -2.7590077379        9.1896949521        9.2003881248
 Si         0.5587133690       -3.3677911502       10.1748480940
 Si         8.7610323078       -1.8642386718        4.5156849028
 Si        -4.9814629134        1.8611591129        7.0470869490
 Si        -6.8624272250       -8.4690378110       -0.0175201995
 Si         2.8494557241       -4.8929005099       -7.7830072969
 Si        -5.8836501784        9.3346462930        9.2007138549
 Si        -8.3057466390       -1.4378327143       -2.3633471052
 Si         5.3434158682        8.2561990205       -5.8885140148
 Si        -8.2681733172       -7.2251798232       -3.6399522592
 Si        -7.4574895724        8.1766899772        3.0868142701
 Si        -5.2941207886        7.9983851717        5.0539186605
 Si         0.2869359671        7.9240626323       -3.4697555414
 Si         6.1894125424       -7.7292528028       -2.1349321470
 Si         7.9906914553        5.7954610856        9.0497322645
 Si         9.1026726537       -5.2423386115       -4.7024271847
 Si         7.4828010111       -4.2226151229        9.4830096938
 Si        -2.1003637479        9.4858712560       -4.3612961106
 Si        -4.6935127479       -8.4457986603        5.4008380697
 Si        -0.3907869970       -8.6428452810       11.1357720711
 Si        -6.9270593789        3.3509741100       -8.1956994748
 Si         1.7650316316       -6.8916755751       -5.3697671841
 Si        -6.2712782268        8.2907331107       -7.5089457709
 Si         9.3107834643        5.7074134362       -4.5303882449
 Si        -7.3944831403        3.8947552174        6.9507001964
 Si        -0.6547546780       -6.1556102237        9.1588794731
 Si         9.2924530529        0.9740559521        5.5697802497
 Si         9.3734491055       -8.0157189589        0.6834113315
 Si        -5.1210778061        9.8941416540       -4.9170255786
 Si         0.2025984265        4.7894044759        9.1976250394
 Si        -2.6650665859        6.0934420410        8.4265434147
 Si         6.8749332733        3.2162479384       -7.6133931529
 Si         5.8450406756       -6.9749704091       -6.6086840666
 Si         2.8447108506        2.4185381201       -7.0109971222
 Si        -1.1381065961       -7.2903444654       -5.3590819831
 Si        -5.6017323005        2.9840885519       -5.4550385522
 Si         6.8659168997        6.8532151408       -1.4738926354
 Si         8.4195179483       -6.8685315910        3.5292449657
 Si         6.9434560143        8.3855211714       10.6305805123
 Si        -5.9830914170       -4.4998912435       -6.7050667499
 Si        -9.2204814448       -0.4783750994       -6.1300384036
 Si         0.7055850405       -8.0000209647        7.1531566392
 Si         8.3453026393       -2.7919641087       -1.6315593427
 Si        -4.3326119078        3.6508151236        9.5210571963
 Si         4.3621042577       -0.1228033878       -7.8453204137
 Si         0.6410134664        6.7938426717       -6.2185017343
 Si        -6.9426534989       -3.6247962137        7.7100003128
 Si        -2.4348728584        7.0391021509        5.5729660235
 Si         5.1210340401        9.0352198178        5.4818065735
 Si        -3.9756627634       -6.7717729439       -6.3349974252
 Si         7.3036707723       -9.1174583269       -4.6532810036
 Si         1.9262016157        9.8271093489        9.6940912350
 Si         6.8504781370        9.5553133682        0.1246102405
 Si         7.0971917134       -0.8105820473       -7.2050640856
 Si         0.0513162899        3.8341179893       -7.1634709771
 Si        -9.5314738409       -4.1499612248        2.7680147122
 Si        -3.4389579489       -5.6529212504       10.2264580030
 Si        -7.8776003184        1.2857553972       -4.0802367730
 Si        -7.9316839495        6.6800843024        0.4164386606
 Si        -6.4793049098       -8.3665081752        2.8513463507
 Si         6.5668692736        7.9897579307        2.8307572748
 Si        -1.8223811397       10.0457322798        6.4089454258
 Si         8.2160196470        4.0450118987       -0.6086104620
 Si         5.7722350599       -6.2833501559        5.0177831404
 Si         9.3052516110       -8.7945413645       10.9288210664
 Si        -9.6529209557        2.1592787401        8.1097960225
 Si        -9.2046120422        3.8803427856        4.3541272040
 Si        -5.9947035683       -0.8689288548        8.5345092861
 Si         9.5025270917        7.7063427186        7.1052596594
 Si         6.6132108548       -4.8867165622       -2.9955093122
 Si         9.7373461678        7.6318474077       -2.1263437398
 Si        -8.9127698322        3.7740220318        1.2554851115
 Si         2.6528308661        6.7418425978        9.3236605010
 Se        -2.2920990835       -1.5997773243        3.6592008694
 Se        -1.5977476820       -3.4892291871       -5.5108175266
 Se        -4.9209082692       -4.4379272331       -1.4192367959
 Se        -1.9567432871       -5.5554971017        2.1622391518
 Se         1.3384817292       -5.4772087589       -0.5863864382
 Se         1.9532648051       -7.8078542084        3.1088515667
 Se        -6.3599137191       -1.6176002858        2.2439335299
 Se        -4.0896960331       -0.7268322785       -4.4836055355
 Se        -4.5750084983        0.9043033595        0.2306660819
 Se        -1.9621490861       -0.4076348773        8.1684616251
 Se         3.7402755528       -1.1556398238       -1.2202230765
 Se        -2.3231831471       -2.2522965276       -0.8299140881
 Se         1.1675818083       -1.8437657504        1.5338358378
 Se         0.7791351225       -4.0762933627        5.4445409304
 Se         5.2873723264       -5.0072834847        0.6301183451
 Se         5.8085526166       -4.0126089378        4.8715464719
 Se        -2.0364627772        4.2790996212       -2.1307065271
 Se        -3.9164493456        4.5797542562        2.0739546784
 Se        -0.9172307511        1.9250852859        4.6868887555
 Se         0.1488575927        0.7335024600       -3.1500625093
 Se        -0.7247058520        1.7900708533        0.5620048085
 Se         0.8027158201        5.0101369230        2.4410138931
 Se         1.1424974465        3.6978276991        7.5620997438
 Se         5.3428841357        0.9039466709       -3.8006717868
 Se         3.5590129908        1.9199655819        2.3064640838
 Se         1.6169792754       -0.0234182837        5.8391565085
 Se         3.7299608221       -0.9031619733        6.5837855496
 Se         7.9019243107       -1.7840581081        0.2397329758
 Se        -2.3512123540        8.2259344783        0.9130734013
 Se         2.5931079489        8.5843813199        0.9500946767
 Se         2.6609220976        4.2351003563       -1.7405193298
 Se         5.4110797265        5.9432398048        2.4108101728
 Se         6.4890250540        2.6347092184       -1.0992756067
 Cd        -6.6753308480       -2.8889150086        0.1915627124
 Cd        -3.9618565794       -3.4288896923       -3.8658829863
 Cd        -2.8566353417       -4.0331589130        4.0851750301
 Cd        -2.9251890447       -0.0931510605        5.6824662377
 Cd         3.4528051365       -3.6924482940       -0.7819164312
 Cd        -0.6429243860       -4.0571232322        0.2208930538
 Cd        -7.3643717788        0.5732482927        0.6234497009
 Cd         0.9505792139        2.1999824733        2.6518788656
 Cd        -3.8206373631       -1.3321273057        1.3573560524
 Cd        -0.6020356369        1.6264498730        7.4135676036
 Cd        -1.3553799205       -0.9593004239       -4.5102447846
 Cd         5.1619271682       -0.8114776132        4.1755554677
 Cd         0.1910706620       -5.8519897945        3.4606881471
 Cd         3.2778258331       -3.5052050875        5.7593915272
 Cd         3.5944488771       -0.6200543658        1.6897836180
 Cd         3.1494660631       -6.0238598155        1.5285879174
 Cd        -1.9761509473        6.5307789125       -1.1355361657
 Cd        -3.0747941774        3.1044742484        0.0584675816
 Cd        -3.1250266060        2.9716049418        3.9709635698
 Cd        -4.2941135295       -0.2165851502       -2.0585102020
 Cd         0.2893488280        3.1830829540       -1.3582331691
 Cd        -0.1323138884       -0.6088579630       -0.6946770090
 Cd         0.2163520474       -1.5885184887        7.3956512086
 Cd         2.8074335000        0.6333380889       -3.3169425061
 Cd         6.1712401991       -0.0351218421       -0.9179478170
 Cd         0.5780812200        5.0109502533        5.1053456162
 Cd         5.4877713975       -2.8556721585        2.2805422096
 Cd         0.5151049293       -1.8260383384        4.0266428288
 Cd         2.1845960287        6.6247159926       -0.7456285527
 Cd         0.1273865919        8.6625748300        0.6537152946
 Cd         3.0267930028        6.6808281184        2.8670604595
 Cd        -1.6535823098        5.9685527239        2.4403744048
 Cd         4.1936114789        3.3853598337        0.1535839283
