402
 i =     9600, time =    19200.000, E =     -5882.3819413044
  O         6.6750347573        2.8335928821       10.1829529198
  O        -5.4843842467       -2.3315571897       -7.9719428449
  O         9.0590538720       -4.5538209329        6.1431127090
  O        -7.7126499897        8.5771312889        0.9991877547
  O         1.5907338284        9.6328762048       -4.4702447268
  O         8.1097659176        8.0363156245        2.4347256324
  O        -6.0968535802        8.8660562475        3.1171889185
  O         5.2481025699        7.4977333454       -5.8261395222
  O        -8.0587740027       -4.1604961561       -1.2336828941
  O         8.7482678092       -1.8886974732        5.4164780865
  O         9.4111145864       -1.1321995749       -3.1192178870
  O        -3.2134622570       -1.1874419831       -8.1503467625
  O         8.4680671250        0.1853664889       -6.9357604644
  O        -5.0008353441       -4.6888607558        9.2802418638
  O        -7.2395384322        0.2201705439        8.8960594866
  O        -6.6132793634        7.1264584060       -0.9510197172
  O         0.1419291425       -5.7725227952        7.3995875242
  O        -6.3999368080        2.3179691921       -5.4111810091
  O        -1.5675621462        9.0319007732        5.3941804973
  O         8.2648759076       -3.7697138266       10.3800736495
  O        -7.8861694932       -5.2673832201        5.0123175557
  O         6.8453525140       -6.0523661722        3.5332258611
  O        -8.6281407052        0.4086627166       -8.1494464856
  O         3.7592743958       -8.6373467924        4.5963237413
  O        -7.6111218159       -1.8522220398       -3.7085619570
  O        -8.7588727661        8.4187839287        3.2464343023
  O        -3.3271569271        8.3438849478       -7.6815000950
  O        -7.1962151351        2.3966353810       10.4945615205
  O        -4.8459856503       -6.3119649103        5.6868354024
  O        -8.8855845460       -6.5807857145        6.8985643530
  O         0.3468993905        8.2097758422       -2.5884682768
  O         3.6210819559        3.6801945271       -6.0672610679
  O        -7.1966371529       -5.9565516271        2.5828288765
  O        -3.7713356343       -6.0842972599       -8.3834809409
  O         7.0021585051       -7.8336856819       -3.6286219938
  O        -7.0120191585       -3.2255310644        8.8908104772
  O         8.7590185600        7.3037584953        7.3624234408
  O        -4.0699064558        3.3525728532       -6.5856936198
  O         5.0153899291       -4.1656775752       -3.8923380258
  O        -7.0831490541        7.0648636582       -5.4274289805
  O        -5.7874469084        4.4159738540        9.6098296916
  O        -2.1382576666       10.4759713895        7.4315946784
  O         5.7488826072        3.9099632871        6.4162370708
  O         4.3773939659        4.7211567722        8.4768776315
  O         9.4660036017        3.0039640305        9.2111721391
  O        -2.3998845101       -4.9925233441        8.6134730378
  O        -7.7616276664        8.3930467980       -7.7003654147
  O         4.7180960807        1.2599961029        9.6114962643
  O         6.3045942913        9.9893507385        8.7880760464
  O         0.0534489215        4.6869100855       10.0328700846
  O         6.1581118604       -5.9810969003        6.1028704371
  O         5.0184374270       -5.9857937988       -5.6329358645
  O        -3.5335601188        5.7030203025       -7.6261882649
  O         2.6349920828        9.2072332575        9.2887104606
  O         8.4114854204        4.3363442783       -7.8951638395
  O         0.7594511650        6.0881185728       -7.1445870763
  O        -8.6863563871       -1.0034940278       -6.0501545887
  O         9.7367059361        3.2202287240        4.3437158292
  O        -4.9352969525       -4.4641940144       -6.3862041888
  O         4.7263424608       -6.7821819870       -3.0916980358
  O        -8.3291647000        9.5291447143       -5.5533900923
  O        -2.1011029064       10.1810892860       10.3621923916
  O        -6.2327792735        8.5022899185        8.0481999077
  O         3.6082289800       -5.0412482693        9.8564020162
  O        -8.0011092603       -0.5332997595       -1.2745455151
  O        -6.0337690943       -4.0349112729        6.6034236206
  O         0.3060567851       -5.7930761823       -5.7228872116
  O        -7.0193979579       -2.9629217214       -6.0006009733
  O         6.5693336626        1.6222950129        7.7550431943
  O        -8.9696732993        1.7008822997       -5.8305170986
  O         4.3908128767       -3.2726616783       -7.7334388991
  O        -9.5694717925       -3.5309881408        0.8651150224
  O        -8.3890133128        6.0482054466        0.5807044275
  O         4.3265940730        5.9649026354        6.0629708074
  O        -6.6825269795       -8.8528446092       -1.4874383341
  O        -6.9662886705       -8.1797965601        7.9882228506
  O         4.4573850352        8.4051001876        5.2304440119
  O         6.5598693614       -1.5925588814       -7.5422785549
  O         3.2896544174        4.3146736978       -8.6630574216
  O        -1.2675191758        6.0285241081        8.2568703242
  O         6.8492477460       -4.9058017394        8.4823284130
  O        -5.3015865218        1.1122107320        7.2199480845
  O         9.7592165511        4.9581117883       -4.5727735298
  O        -5.6372699520       -4.4520405532        3.9942061763
  O        -7.6548545722       -8.6214301816        2.6595326237
  O         7.4675911384        1.9136242983        5.2568351137
  O         9.4540277673       -1.8066942543        2.8725112120
  O        -0.5873025285        8.0885287676       -7.9897503440
  O         7.5169511478       -7.2827578801        7.7122014126
  O        -7.6041480930        5.7205828694       -2.9148012232
  O         8.9570194367       -3.3297413544       -1.5763511025
  O         5.8095057520        7.3065494099       -3.2081088982
  O         9.2387267631       -4.8542856130       -6.6950930332
  O         6.0039807896       -2.5372943567        9.5649255183
  O         6.0373218507       -8.9770662286        6.1523488330
  O         8.7898472032        4.9215953667        0.4660965810
  O         8.1728852594       -2.7162575021        7.8375362006
  O        -4.9387824710       -0.8718047904        9.1362487046
  O         6.3570360951        3.6541539790       -6.6025896033
  O         6.6614286244        9.9938679694        1.2127290444
  O        -6.3263945092        9.9449539976       10.1821251086
  O         1.7754741421        8.7006137390       -6.8539231002
  O        -7.5762578048       -5.7920084273        9.0350652760
  O         7.3240255074       -0.6411216570        3.4087065483
  O         4.1970010666       -5.9981041050        4.4106819945
  O        -7.1301997426        6.2120698181        7.1486226454
  O        -8.4582148684        3.2896239150       -0.0438912193
  O         5.0193496415       -6.5935340687        8.4844590211
  O         9.1592754270       -5.7807515211       -0.4482333831
  O         9.1969926829       -6.7287449651        4.5807294288
  O         6.8521209765       -5.3277503381       -2.3535530358
  O         6.9495853272       -2.4872184544       -3.0426533822
  O        -0.3484702986       -7.9649636115        5.8391581682
  O         9.8308346362        6.9361438660       -6.3125065701
  O         7.2012589778        0.2930185966       10.0473082997
  O         0.5187210813       -8.6277333411       10.2195715546
  O        -2.4824743876       -5.4668483518       -6.3166293579
  O        -1.6743109646        9.9542409576       -6.4626257009
  O        -3.7564931982        5.8994051398        8.8325326899
  O        -7.4045798319       -5.0549568563       -3.6149204169
  O         7.6700828628        6.4451442585       -5.0409091656
  O         2.9001320424       -7.6284859779        9.9452950607
  O        -0.9409466909       -7.1042273263       -7.6502908278
  O         6.6417558400        9.6660225473       -5.4339413175
  O         6.1206097782        9.7541539407        3.6144646073
  O        -1.1330940183       -7.0717481781        9.0876881784
  O        -8.5083818439        8.5775324566        6.5874880621
  O        -0.6841575629       -2.2250994755       10.6657228885
  O        -8.4459674748       -7.5444586386        0.1631762735
  O        -5.6201288448        4.7900659262       -4.9347007383
  O         8.1180566332        3.7495259341        7.1545523326
  O        -5.3054368549        6.7571088143       -3.2642917165
  O         0.0433412516       -4.5984376185        9.7640615398
  O         8.5044795937       -8.4468344705       -0.4452137123
  O         6.3734401745        8.9885098030       -1.0238013088
  O        -6.2994102654       10.8316086073       -4.1935406573
  O         8.6680063083        8.3482090353        4.8586464944
  O        -3.8753567114        8.3348495371        4.3588065276
  O        -4.3387403900        2.6600902537        5.2402374193
  O        -5.7635124289        9.8484919294       -6.6392314821
  O         9.0077712751       -8.5495650051       -5.3600681652
  O         7.5590239038        7.8909657722        9.7031701872
  O         1.9418756346       -7.8083151663       -6.2057477481
  O        -7.1089528463        8.6041187148       -3.1326247617
  O        -5.7840495594        0.3107265972       -8.2408277583
  O         2.0251567075       -6.7396006697        5.6701958452
  O         6.6343805964       -5.1099924392       -7.5936231185
  O        -8.2077350722        3.2142359380       -3.5782331149
  O        -5.1124541098       -7.4404381442        3.2567233992
  O         8.9162744125       -4.5026587685        3.1314009271
  O         3.9271131046        9.8149875208       -6.0042847667
  O        -8.0868319713       -7.1012495803       -5.5506486526
  O         3.1541462934        1.6944449549       -7.7719552507
  O         6.3827301626        6.2558914031        7.7714714352
  O         5.7137916344        0.8485281891       -7.2885092538
  O         2.5370168941       -5.2838133211       -7.0625178173
  O        10.3311033196        9.9019667704       -2.6647885742
  O        -8.7408404497        4.2387576005        2.3203078763
  O         4.9012572082       -7.0550493290       11.2992125912
  O        -6.4882113237        4.3761511928       -7.2709584753
  O         5.7725490153        9.1354257335       -7.9913228513
  O        -9.2044586680       -7.9619624160        9.1938715174
  O         4.1027060455       -0.8927479089       10.9531943264
  O        -8.0404882170       -3.5616196549        3.0129716507
  O        -3.7439028003       10.2034823228       -4.8413508857
  O         3.6373705756        6.7934605360        9.6767146227
  O        -6.3998153960       -1.4375071935        6.9088186252
  O        -5.2190535462       10.4008840942        5.3314738825
  O         7.5225855901        6.5335339160       -1.2631915550
  O        -6.3942264924        3.5726030814        6.5974809860
  O        -0.0839181702        7.7874883456       -5.2678109814
  O         5.7902286207        5.2619408224       -8.6200266672
  O         5.3086299715        5.1672915476       -4.7148670904
  O         9.4466869996        4.6700877200       -2.0497840657
  O        -3.0515589669        7.2623183555        6.6321261990
  O        -1.7001060738       -7.3572340539       -4.9285196968
  O         0.8707484608       -2.3490385889        8.4688897697
  O         1.8685802582       -3.1335164126       10.8636167460
  O         8.0811031641       10.4087766598       10.6707837131
  O        -1.3868854357        4.2927613010       -7.1605340389
  O        -9.0097411679       -8.1194180972       -7.7143382646
  O        -2.8678881028       -7.9601627332        5.0220285671
  O        -7.9271854679        0.6867803460       -3.6172961288
  O         9.3422816250        6.0459550833        3.8711041327
  O        -4.4160411291       10.3925776965        8.6288783365
  O        -3.3155573841        3.6600201539       -9.1715315922
  O        -1.7453765222        6.6886114084        4.2114891699
  O         1.2421104395        3.4940041801       -7.2396484766
  O         8.5254118458        9.9110215930        6.9909685740
  O        -2.7933140999       -3.7496942993       10.7992138306
  O         1.0890923233        6.9969266136        9.1459174296
  O        -6.8433695505       -4.5143704205       -8.0936278570
  O        -8.6052591811       -2.7865054240        6.8521113581
  O        -6.2297664282        7.9152882866        5.4164380312
  O        -3.5347654152       -3.9040651057        5.5000142974
  O        -4.0834031030        3.5044442375        7.7344550073
  O        -8.4251735556        4.8211971575       10.4017921482
  O         7.4378363334       -4.3810886273       -4.7715792142
  O         8.6609310558       -6.3555918841       10.6014580270
  O         8.6345351035        5.5044720422        9.1951081030
  O        -5.9446306774       -7.6595267540        0.7966945049
  O        -8.6991073269        4.3630151543        7.4339486422
  O         6.1818618538       -7.6893018669       -1.0887614369
  O         6.9614327312       -7.3238796748       -6.2776914869
  O         8.8268795644       -6.8917221438        1.8249537898
  O         2.2734465269        7.0488719076        4.5895882161
  O        -9.8694476612       -5.7098892163       -4.1916810995
  O        -6.3571118808       -6.2754114436       -1.4399992568
  O         9.9177530879        7.5072399500       -3.8205734686
  O        -9.6975068028        1.8369179422        6.6025746427
  O         2.7364151548       -5.6216165591       -4.4914236249
  O        -9.5891866962       -3.1681682893       -4.8186058174
  O         9.5338377114        0.5064622243        4.3874468552
  O        -5.4947429253        7.5701827774       -8.1089294236
  O        -2.6597262643        8.2782959406        8.8891773998
  O        10.1395713170        7.7368830673       -1.0957694589
  O         1.4914004389       -8.1459739266        7.8247965259
  O        -8.2036345724       -7.4321525483       -2.9329456771
  O        -7.7648262696        4.9500933310        4.9239677903
  O        -1.1734593819        9.6505051348       -3.9482517756
  O        -4.7976721040       -7.0529424974       -6.0527237457
  O        -4.4090401421        7.1325571612       -5.6454682101
  O         8.1852408121        8.5686448274       -2.7033109909
  O         2.7574606716        7.6020211990        7.1371487261
 Si         3.0530876760       -7.1914545159        4.4591298616
 Si        -6.6328167181       -4.6353209427        9.6501927785
 Si        -4.2235155647        7.0695415329       -7.2663701301
 Si         6.3584532721        1.4633388141        9.3292711435
 Si        -9.5831642482       -4.3043197431       -0.5812782006
 Si        -9.3505662945       -5.7375670695        5.6192854538
 Si         9.2015464586        7.5966944096        3.5584958650
 Si        -8.2498405865        7.9908978306       -6.1829538894
 Si         4.2110441309       -6.6144748182        9.8452879734
 Si        -2.9776701733        4.1444751039       -7.6158968666
 Si        -8.9126311624       -8.4153573156       -6.0725591022
 Si         6.0760780296        6.6221797259       -4.7103184126
 Si         3.3976661025        7.2660345310        5.6784304916
 Si        -7.2416801420        0.7800083140       10.4516975548
 Si         8.1766248924       -4.9914565114       -7.9500586340
 Si         6.3860758347       -6.1699438739        7.6411898005
 Si        -7.4735149929       10.3711162291       -2.9251086773
 Si        -4.9047696844       -4.5770745291        5.5561840063
 Si         4.3160975418        5.2982154215        9.9838033630
 Si        -4.7947676481       -0.9748529513       10.7404861724
 Si        -7.0425290649        7.8129343711        6.7801206121
 Si         2.3020271089        9.9882508656       -6.0155064654
 Si        -5.6712269001        6.4450776233       -4.9002045262
 Si         5.2315623267       -2.1146044000       -8.4284369642
 Si         7.0681561939       -8.8123941554        7.4352525926
 Si        -7.2031031664       -4.7481834936        3.6566878306
 Si         5.1663545993        3.7381504891       -5.4555646614
 Si        -1.9251644545        9.0123483516       -7.7406417367
 Si        -8.2004065835       -2.2827664923       -5.1873081644
 Si         5.2579984980        5.2722787900        7.1442853863
 Si         4.3454156143       -5.6709208311       -4.2441860406
 Si         6.9119121157        2.7817869487        6.6002625889
 Si        -8.7989396903        4.6447813192       -3.2308061589
 Si         9.1790978893       -2.9408173140        6.5861090994
 Si        -6.8330717641       -4.8669023865       -2.0843226469
 Si        -2.1280299107       -2.3440302515       -7.9895038000
 Si        -6.7143107813        7.1478585427       -2.6060221252
 Si         9.4017588958        4.4376883396       10.1355580602
 Si        -8.1955834644       -7.1659412438        8.2913938106
 Si        -2.9605792248        9.8207101102        8.6706938846
 Si         0.5516981399       -2.9728886646        9.8523968105
 Si         8.7705436412       -1.0070365224        4.0552558462
 Si        -5.0616808809        2.7169006997        6.7118023736
 Si        -6.9475589712       -7.5858250237       -0.4996343905
 Si         3.0879569069       -4.2069619429       -8.2142854258
 Si        -6.0085062833       10.0037892072        8.5981240712
 Si        -8.3360332406       -0.6592668882       -2.8353741191
 Si         5.3981651248        9.0667069836       -6.3163863058
 Si        -8.3324012952       -6.3289258711       -4.1202294453
 Si        -7.6025665348        9.1736544057        2.4612168979
 Si        -5.3112672043        8.9103090223        4.5730643737
 Si         0.2725449558        8.8326449580       -4.0592116539
 Si         6.2258647732       -6.9183757564       -2.5169519173
 Si         7.8226168753        6.7723931022        8.4906182377
 Si         8.9981880539       -4.5179766908       -5.1389953674
 Si         7.3154379596       -3.4508387307        9.0574748900
 Si        -2.1888636003       10.4453965431       -5.0144343350
 Si        -4.4909600318       -7.6024669938        4.8234176523
 Si        -0.8693678024       -7.9399756650       10.4087846153
 Si        -7.0160735698        3.9737383298       -8.7903956209
 Si         1.8992939617       -6.0970687065       -5.8486394984
 Si        -6.2917236606        9.0010611867       -7.9250404590
 Si         9.2851733435        6.4318493287       -4.8645969285
 Si        -7.4390568950        4.7804426481        6.5099717811
 Si        -0.7793029765       -5.5107694379        8.7413857419
 Si         9.1334073706        1.9023737766        5.0613322720
 Si         9.3464078669       -7.1904694006        0.3035390652
 Si        -5.1913614971       10.8055911855       -5.3990866141
 Si         0.2667146811        5.6261829184        8.7185815034
 Si        -2.6670154652        6.8328375622        8.1246427968
 Si         6.8049337986        4.0557078704       -8.1054965733
 Si         5.8624961624       -6.4123252672       -6.9166884282
 Si         2.8792134721        3.3494566149       -7.4943671716
 Si        -1.1831098583       -6.4384308096       -6.1401701319
 Si        -5.6068923223        3.6157400893       -6.0705721901
 Si         6.9284633852        7.8879456770       -2.1037111566
 Si         8.4846474491       -6.1325194950        3.2131111837
 Si         6.8614875952        9.3183591674       10.2225045202
 Si        -6.0280983270       -3.5302243144       -7.0948743390
 Si        -9.2873434254        0.3201414239       -6.6969305565
 Si         0.8148042075       -7.1747727418        6.7136210965
 Si         8.3196618346       -1.9604430429       -2.1305334486
 Si        -4.2444944588        4.4242668983        9.0948464520
 Si         4.3611391140        0.7019078943       -8.2236494450
 Si         0.4865833447        7.7123519021       -6.7892217495
 Si        -7.0385535893       -2.9569325923        7.2763094259
 Si        -2.5329691203        7.7328560593        5.0930509216
 Si         5.1420381861        9.8219958625        4.9132852925
 Si        -4.0789612761       -5.7729894294       -6.8242594781
 Si         7.4349859944       -8.3565620360       -5.1169159070
 Si         1.8924344241       10.7082608221        9.2842508532
 Si         6.9550219636       10.4117723523       -0.3835549319
 Si         7.0471502924       -0.0490147356       -7.7127037483
 Si         0.1166980470        4.6291316031       -7.7429140557
 Si        -9.5575806596       -3.3526343313        2.4497160404
 Si        -3.4528117318       -4.8876921830        9.8538397182
 Si        -7.8583755049        1.9765545927       -4.6524277338
 Si        -7.9307536630        7.4148521520       -0.0774518004
 Si        -6.4974153029       -7.4238642219        2.3666338625
 Si         6.6118347604        8.8195962667        2.3506935203
 Si        -1.7596884947       10.5715897605        5.8427358909
 Si         8.1806655840        5.0910717614       -1.0382796661
 Si         5.7886316114       -5.4530934533        4.6262405502
 Si         9.2474018543       -7.8538090971       10.5277938361
 Si        -9.8091399987        3.1515293418        7.6031857585
 Si        -9.0054659648        4.6951948430        3.8490962770
 Si        -5.9254291486       -0.2220585375        7.9488530432
 Si         9.2723199571        8.5491570834        6.4003153679
 Si         6.5824383158       -4.0695873461       -3.4198003325
 Si         9.8007955560        8.4388928791       -2.5036021889
 Si        -9.0099423143        4.5386549219        0.7384392442
 Si         2.6028628544        7.6577201767        8.7774623666
 Se        -2.5245084139       -0.5631471654        3.1633394460
 Se        -1.4607478011       -2.7597383699       -5.7452979146
 Se        -4.9715266501       -3.4895116984       -1.9257996298
 Se        -1.7292323083       -4.4947377638        1.7787951900
 Se         1.4839259979       -4.3250978504       -1.0377323187
 Se         1.8182828260       -6.8896983920        2.5958862091
 Se        -6.1169264869       -0.6295989770        1.7262265829
 Se        -3.5538232970        0.2296745610       -4.9889027475
 Se        -4.8846204374        2.3543064283       -0.7390581661
 Se        -1.6840413724        0.5969148789        7.6936414664
 Se         3.7535245987        0.0007206905       -1.3926268008
 Se        -2.0370891383       -1.3115576694       -1.2724849825
 Se         1.2599198397       -0.6121047220        1.2439213373
 Se         0.7805922910       -2.9920380337        4.8569325292
 Se         5.3987616349       -3.9714190872        0.3439784515
 Se         5.7112680016       -3.2113516852        4.4425032257
 Se        -2.4132276521        5.5846220450       -2.6595059557
 Se        -4.2110668770        5.4687454774        1.9369666542
 Se        -0.6976374404        3.3340384131        4.1444003438
 Se         0.4037988465        1.4925223874       -3.1748728921
 Se        -1.2732219360        2.8603779813       -0.0044962536
 Se         0.5070786403        6.5138161649        1.5141480086
 Se         1.6101509797        4.4274570214        7.1231439626
 Se         5.2280581595        1.7289440716       -4.4223793520
 Se         3.1408152754        3.1487016941        2.0189966191
 Se         1.7820667970        0.8727513493        5.1559482653
 Se         3.7166122806       -0.2012369960        6.0536148028
 Se         7.9156940076       -0.5289153065       -0.3804281661
 Se        -2.3123592445        9.5079212778        0.2700856732
 Se         2.7494099426        9.6788264242       -0.1480371416
 Se         2.4895996196        4.9739286622       -2.0658770447
 Se         5.3007889403        6.9695592219        2.0219795158
 Se         6.2440502631        3.8427196947       -1.4736383607
 Cd        -6.3019597064       -1.8098369097       -0.4636260473
 Cd        -3.8103817896       -2.1338044613       -3.9368418024
 Cd        -3.0763321825       -3.1389945882        3.5268046669
 Cd        -2.7948532104        0.8416113257        5.4090320158
 Cd         3.6403406876       -2.6902808372       -1.3287768563
 Cd        -0.2552560742       -2.6181246877        0.1732896817
 Cd        -7.4100394339        1.4546294300        0.0738063724
 Cd         0.6301166432        3.6394321202        1.6098280221
 Cd        -3.7127395643       -0.0654026403        0.6702560449
 Cd         0.0552801976        2.4289906953        6.7638625119
 Cd        -0.8886201483       -0.3772580811       -4.5021371428
 Cd         5.3235035533        0.1280783011        3.9203042011
 Cd         0.1656764247       -4.9582800930        3.3680465353
 Cd         3.3111377612       -2.7383981426        5.3351369752
 Cd         3.9113191498        0.6168917436        1.3878708925
 Cd         3.0053611560       -4.9119300673        1.0921451467
 Cd        -1.9637018756        7.9874821599       -1.8014600432
 Cd        -3.4255334875        4.6671034858       -0.4897877627
 Cd        -3.2643470226        3.7812302857        3.6506281062
 Cd        -3.9972645134        1.3390152283       -2.7821094215
 Cd        -0.1400208423        4.3939703128       -1.9233855283
 Cd        -0.0957586021        0.5408687914       -0.7174911484
 Cd         0.2211427687       -1.1597488409        6.8422664491
 Cd         2.9140572624        1.8530314505       -3.3611655006
 Cd         6.2159929103        0.9572341795       -1.6631606768
 Cd         0.4515901271        5.8351363491        4.8079056416
 Cd         6.0223701054       -1.5770693783        1.4419124031
 Cd         0.1147481516       -0.6193169348        3.5028881892
 Cd         2.3022950015        7.4766312138       -1.5890932927
 Cd         0.2983120950        9.7585544732        0.0301898694
 Cd         2.7782487513        7.8938939498        2.1170853463
 Cd        -1.9621229809        6.9374420715        1.9558083578
 Cd         3.8805451864        4.3278865722        0.0008024302
