402
 i =     7200, time =    14400.000, E =     -5882.4214331835
  O         6.5880873398        1.9413711558       10.6323689056
  O        -5.4608366822       -3.3358272873       -7.6851308527
  O         9.2866120745       -5.4290919442        6.6295674940
  O        -7.4567422693        7.6713572521        1.4663002043
  O         1.7380694058        8.5827268294       -3.9932486351
  O         8.1443747392        7.3733100426        2.9784623440
  O        -6.0078601884        7.6967688476        3.4891650105
  O         5.2123881260        6.7466975252       -5.1559560388
  O        -7.8620178056       -5.0038998015       -0.8505563822
  O         8.7159151155       -2.7956635963        6.0516181989
  O         9.3934590822       -1.9929504924       -2.5056940162
  O        -3.3163367424       -2.0213397502       -7.6270272196
  O         8.3851049548       -0.4982159594       -6.7096372073
  O        -4.9868565615       -5.5355721400        9.6740599668
  O        -7.1752751276       -0.7946164612        9.3873004079
  O        -6.4055577044        6.2712331721       -0.3911373273
  O        -0.2535230802       -6.7467150049        7.5254549656
  O        -6.3588529766        1.4425479108       -4.9454869251
  O        -1.7305040681        8.1992210958        6.1722349141
  O         8.3757548970       -4.7113489140       10.6488817628
  O        -7.8420063541       -6.3007193221        5.3989129515
  O         6.8601824642       -6.7576494131        4.0336255295
  O        -8.6853327372       -0.1451265475       -7.8748667158
  O         3.8097609306       -9.4060685039        5.3449146530
  O        -7.5523109405       -2.7094969766       -3.4097040239
  O        -8.6807691831        7.5863225193        3.8427912881
  O        -3.0593115127        7.5796604452       -7.4341759252
  O        -6.7518827940        1.4598177489       10.6056161100
  O        -5.0293906281       -7.1564858781        6.2491642283
  O        -8.8110773095       -7.7212563935        7.3071529949
  O         0.6275232860        6.8728461186       -2.1474446046
  O         3.6176339202        2.8977630724       -5.6286497797
  O        -7.0550308055       -6.9505118294        2.9102239147
  O        -3.8671151554       -7.1186458542       -7.9089332219
  O         7.0254339955       -8.6058119558       -3.2053938573
  O        -7.1516002363       -4.0668798122        9.2892162833
  O         8.8826748337        6.5001935762        7.9301699632
  O        -3.8758293715        2.4872354451       -5.9966745555
  O         4.9983928155       -5.1360551095       -3.3267659805
  O        -6.8799162692        6.3136742940       -5.0973674927
  O        -5.8150723168        3.8142044649        9.9710472117
  O        -1.9743980988        9.9525235089        8.0940243568
  O         5.6957851439        2.8935113562        6.8000293953
  O         4.5198559064        3.8567642625        8.8734802321
  O         9.4820634377        1.9696091374        9.6913223524
  O        -2.4794780883       -6.3777794203        9.2173474575
  O        -7.6953567043        7.6136058564       -7.3115536882
  O         4.7182092455        0.3788289365        9.9904262170
  O         6.3791041720        9.0868023069        9.2615216587
  O        -0.1512374636        3.9437566417       10.4776362932
  O         5.9546563018       -6.9894118037        6.5874446352
  O         4.9561531875       -6.8356161057       -5.3177823828
  O        -3.4602368082        4.9349424918       -7.2350438216
  O         2.6658032726        8.3404717585        9.8699566108
  O         8.3796050502        3.2661941022       -7.6154105336
  O         0.6869941545        5.0911320081       -6.7619591993
  O        -8.6728648821       -1.6893818125       -5.7013878043
  O         9.4218933638        2.4065171935        4.6928137162
  O        -4.8559512878       -5.3907790353       -5.9888369313
  O         4.5707227741       -7.6408019883       -2.6873821968
  O        -8.2477337076        8.6400032418       -5.0503726222
  O        -1.8900886923        9.5066231457       10.7265792593
  O        -6.1989849749        7.8132190579        8.4347858397
  O         3.5348599605       -5.8993066234       10.2073209332
  O        -7.8413938286       -1.5208431125       -0.9781150845
  O        -6.0517143753       -4.7307928858        6.8959671502
  O         0.2875420820       -6.6736313919       -5.2508039664
  O        -7.2022546185       -3.9112377368       -5.7184220818
  O         6.8125130755        0.7420559065        8.2779243497
  O        -8.9885775752        0.8809526485       -5.4367451630
  O         4.1236242662       -4.1831269331       -7.3033833007
  O        -9.4402262290       -4.2941602877        1.3331175761
  O        -8.1979343865        5.0326560088        0.8977325979
  O         4.5344131231        5.1311410677        6.4106445311
  O        -6.6237728683       -9.7963408867       -1.0543502679
  O        -6.7126558927       -8.8820680229        8.3786483546
  O         4.5700622408        7.5552941077        5.7725376922
  O         6.3717817941       -2.4890099826       -6.9447255608
  O         3.2780504210        3.5690301465       -8.2685715416
  O        -1.0064660879        5.5528944921        8.5465727511
  O         6.7966403873       -5.6935840008        8.7940555847
  O        -5.3981097439        0.3603848414        7.7651503881
  O        10.0345328574        4.2902660278       -4.2293322840
  O        -5.6386474240       -5.3279701596        4.4346342970
  O        -7.3651736237       -9.5646267852        3.2406380561
  O         7.4409751187        1.1499236216        5.6413632015
  O         9.7073706367       -2.7158064635        3.5053369974
  O        -0.4574335481        7.1737434048       -7.6621719592
  O         7.5074377891       -8.0994646342        8.1726176826
  O        -7.4961955724        4.9045394836       -2.2058464161
  O         9.1406068280       -4.3324916003       -1.2004093624
  O         6.1468465181        6.5236233596       -2.5387931923
  O         9.2086932043       -5.8622454323       -6.3632812449
  O         6.0712426437       -3.5212412914       10.0940479343
  O         6.0629006205       -9.8788656021        6.8020579960
  O         8.9894146581        3.8345576839        0.8970207743
  O         8.2944321606       -3.4833534863        8.3892687444
  O        -4.7814695936       -1.7502291767        9.5110487067
  O         6.1879383885        2.8972956047       -6.2546092865
  O         6.6128121243        9.2491076155        1.8268965920
  O        -6.1350706845        9.2782746339       10.6910268451
  O         1.9235511942        7.7259216244       -6.4936612116
  O        -7.5395159794       -6.6019385084        9.4588346256
  O         7.2873101891       -1.6029144783        3.9707312600
  O         4.2128148919       -6.9979231566        4.7113767836
  O        -7.1006556043        5.3879594343        7.6196509473
  O        -8.3244761273        2.2871549107        0.4701517487
  O         5.0213165150       -7.6384694492        8.9528562791
  O         9.4518037132       -6.6179800445       -0.0464983754
  O         9.3277416828       -7.5423022419        4.9837963947
  O         6.7098823954       -6.3469411181       -1.9409526983
  O         6.9966733137       -3.6013284103       -2.2651270925
  O        -0.2671256799       -8.9752050193        6.1189174846
  O         9.7850820849        6.4215180822       -5.7900588352
  O         7.0604384670       -0.6967365763       10.4416939198
  O         0.6774434753       -9.7561930123       10.8126539234
  O        -2.4841120612       -6.5627045164       -5.5533396785
  O        -1.3757252160        8.8027754096       -5.9341950045
  O        -3.5643806084        5.0647258092        9.2856214685
  O        -6.9783759069       -6.1229243241       -3.2390845227
  O         7.5812844947        5.5230426089       -4.6247063129
  O         2.7874259819       -8.4795161849       10.2906651275
  O        -0.9439930814       -8.1349505345       -6.9870285294
  O         6.5528123035        8.8419747006       -4.7480661297
  O         6.2021332984        9.0382674430        4.2664592527
  O        -0.2951249283       -7.5260937988        9.9572055438
  O        -8.4552683424        7.8202404763        6.9702458110
  O        -0.7023762094       -2.8952215451       11.0316660659
  O        -8.4427343717       -8.5918488993        0.7054551310
  O        -5.4771786254        4.0262769453       -4.5546601362
  O         8.1304693965        2.8504674911        7.6185322720
  O        -5.1845433511        5.9017143705       -2.8478429534
  O        -0.3434805575       -4.8503744477        9.3897105915
  O         8.3627475444       -9.1744172595        0.2599124013
  O         6.2024790627        8.0136153281       -0.2280388548
  O        -6.0642242551        9.6633251274       -3.7149728880
  O         8.5812482939        7.3836005765        5.4943166538
  O        -3.7104843338        7.5454434396        4.7050734850
  O        -4.0410506286        1.5119146506        5.8353730644
  O        -5.4504272672        8.9580022454       -6.2669767124
  O         9.0291613891       -9.2520113449       -4.8396501619
  O         7.2657206837        6.8591532078       10.1128703132
  O         2.0047026353       -8.8177962723       -5.6580708814
  O        -7.0147229112        7.6370701836       -2.5903869468
  O        -5.8811463565       -0.7648563640       -7.7372615028
  O         2.0293159323       -7.6925978834        6.2749065247
  O         6.6120846578       -6.1243973899       -7.3188514475
  O        -8.1299927525        2.3187439489       -3.1638090975
  O        -4.9484164359       -8.4407173884        3.7880910611
  O         8.9377599682       -5.3018159223        3.5575430656
  O         4.0803992310        9.0107321289       -5.7031988606
  O        -7.9347643765       -8.0427495176       -5.1915850061
  O         3.1118352929        0.9036685459       -7.3422346416
  O         6.5504721561        5.2521005875        8.2441260287
  O         5.6039755650       -0.0697105316       -6.8134050680
  O         2.4268824969       -6.2649804454       -6.7244942232
  O        10.4391783908        8.9125118635       -2.3921000041
  O        -8.4524548542        3.4674366907        2.8865979119
  O         4.8412136023       -7.8778533075       11.6791793072
  O        -6.2314379829        3.2282239324       -6.9039906863
  O         6.0193690875        8.2804682345       -7.4101237270
  O        -9.0062181344       -8.8829434917        9.7341678025
  O         4.0418554041       -1.7919496370       11.3839504551
  O        -7.9084786935       -4.6073351116        3.2624896524
  O        -3.4746685944        9.4237723385       -4.3749397135
  O         3.9223010250        6.0918165926       10.3625973893
  O        -6.2392595942       -2.1765260998        7.3762613231
  O        -5.2548201676        9.4247221984        5.7880985631
  O         7.6582483798        5.6470789937       -0.6515109213
  O        -6.1692563439        2.9098055300        6.8724627375
  O         0.1018248291        6.5803474624       -4.8932670272
  O         5.8661763421        4.3617620514       -8.2142023649
  O         5.4531725537        4.3495472099       -4.2842672298
  O         9.4876498216        3.7884332308       -1.6725102426
  O        -3.1291915575        6.1933655011        6.9668483438
  O        -1.2660564309       -8.5648071953       -4.2887877502
  O         1.2892318236       -2.7858248156        9.0363730148
  O         1.5430398582       -4.3725587590       11.1843249925
  O         8.2914608182        9.2386871855       11.0645718055
  O        -1.4243948576        3.3682545037       -6.7681642000
  O        -9.0730270122       -9.0988608699       -7.1437300701
  O        -2.9083899703       -8.7897009386        5.6308696958
  O        -8.0090977113       -0.1418556297       -3.2156310432
  O         9.3105880718        5.1478943062        4.0965519841
  O        -4.3392700500        9.7072844599        8.9753057796
  O        -3.3914401334        2.8951455824       -8.5862851515
  O        -1.6147444147        5.8650548514        4.8056387419
  O         1.1863907707        2.6216141550       -7.0276100149
  O         8.5263310917        8.9776215415        7.4451974759
  O        -2.8211652365       -4.6313900524       11.1441270535
  O         1.3093267853        6.0280254226        9.7250318152
  O        -6.7742995575       -5.4936603350       -7.7701381232
  O        -8.5264064172       -3.3724110490        7.2266710303
  O        -6.0326783283        6.9735645989        5.9755472725
  O        -3.4805833759       -4.9151361489        5.9609709987
  O        -4.0387458562        2.7706364263        8.2019045594
  O        -8.3817378629        3.5603457355       11.0874719622
  O         7.5127948865       -5.3523811108       -4.3092430398
  O         8.5761323861       -7.4602062010       11.0853218651
  O         8.8597637380        4.7113287103        9.7628045912
  O        -5.8844860022       -8.7950517321        1.2921725226
  O        -8.4746322751        3.2106138054        7.9445478823
  O         5.9849153795       -8.8283763799       -0.7047875133
  O         6.9150302685       -8.3678520577       -6.0539847894
  O         8.8794021679       -7.6204733681        2.3262699304
  O         2.3963251409        6.1650372684        5.3338095466
  O        -9.5541633426       -6.5055364004       -3.8566592278
  O        -6.4351237382       -7.1880077505       -0.7167775345
  O         9.6694188718        6.4310665081       -3.0807391716
  O        -9.6352821145        0.9305493702        6.9930006900
  O         2.7112821908       -6.5067948968       -4.1086751495
  O        -9.6171092115       -3.9765776946       -4.6396171201
  O         9.4220224957       -0.4339401717        4.8188218464
  O        -5.3511872372        6.6851067628       -7.7501091129
  O        -2.5830307270        7.6299298444        9.1678166541
  O        10.2866718474        6.9655600678       -0.5369121999
  O         1.2229658464       -9.2640063409        8.2766814711
  O        -7.9065027062       -8.3894910960       -2.6392593984
  O        -7.9841482842        4.1239425673        5.4657100957
  O        -1.1202755090        8.3251572380       -3.4465464343
  O        -4.6701963994       -8.0617436371       -5.4532377717
  O        -4.2411161484        6.3309371709       -5.2347332330
  O         8.1515058653        8.0536236509       -1.6699384540
  O         3.1470548284        6.7942897960        7.9051515340
 Si         3.0006121952       -8.0424180149        5.0351046866
 Si        -6.5948836553       -5.4384411077       10.0188532390
 Si        -4.0555445918        6.4016045177       -6.8309725914
 Si         6.3089063950        0.6059778288        9.7637463480
 Si        -9.3328162194       -5.1086548859       -0.1506794245
 Si        -9.2095518614       -6.7048885423        6.1081197153
 Si         9.2642862753        6.8807952452        4.0682273220
 Si        -8.1046760611        7.1671762935       -5.7852293980
 Si         4.0794971342       -7.4998520911       10.3015920680
 Si        -3.0317277490        3.3872092188       -7.0869703920
 Si        -8.9051611388       -9.3428199075       -5.5534412348
 Si         6.1409935192        5.8321679728       -4.0054450012
 Si         3.5679953015        6.4363558989        6.3395028985
 Si        -7.1620189872       -0.0652310912       10.8463371784
 Si         8.1988119763       -5.9778349098       -7.7202796970
 Si         6.2831454124       -7.0151222067        8.1494458607
 Si        -7.3221836334        9.3430963995       -2.5730235689
 Si        -4.9825930538       -5.5173539630        5.9344137279
 Si         4.4034890078        4.5125182110       10.3888581261
 Si        -4.8746539188       -1.9168891809       11.1686585679
 Si        -7.0248162707        6.9766161555        7.2723877940
 Si         2.4313632946        8.9609914353       -5.4731333502
 Si        -5.4977091448        5.6337108559       -4.4559205697
 Si         5.1466013271       -3.0553116331       -7.9778387689
 Si         7.1772196782       -9.6794582566        7.9327381058
 Si        -7.1146327997       -5.8012363216        4.0136906362
 Si         5.1502103878        2.8852911995       -5.0036727039
 Si        -1.6363485743        8.2538987971       -7.4299193557
 Si        -8.2564247560       -3.0811008403       -4.8520251487
 Si         5.3881383680        4.3543037300        7.5344748414
 Si         4.3349410903       -6.5142452821       -3.8513715721
 Si         6.9323351172        1.9095139437        7.0540254793
 Si        -8.7228153384        3.8693205510       -2.7315842452
 Si         9.3466708761       -3.8041337079        7.1274777084
 Si        -6.6931171268       -5.8719486024       -1.6702081282
 Si        -2.1560535776       -3.2340981251       -7.6125493244
 Si        -6.5935944866        6.2366432966       -2.0159282687
 Si         9.4768129749        3.3460751684       10.5854130637
 Si        -8.0048764475       -7.9844159589        8.7409308754
 Si        -2.8452131243        9.1626351049        9.1220620542
 Si         0.5187253350       -3.6232097339       10.1519252765
 Si         8.7019718421       -1.8886585517        4.6471969854
 Si        -4.8970729491        1.9049118424        7.1331504622
 Si        -6.9717751965       -8.6024813900       -0.0138034061
 Si         2.8949793612       -5.1547895425       -7.7727473407
 Si        -5.9281792200        9.2816791575        9.0606763179
 Si        -8.3659559621       -1.5670374913       -2.4895814272
 Si         5.4967161156        8.1908283066       -5.8273201655
 Si        -8.1313022419       -7.2649651247       -3.7427807318
 Si        -7.4527697428        8.2640867649        3.0015358806
 Si        -5.2496045494        7.9444757004        4.9236421379
 Si         0.4005862307        7.6015615365       -3.6082466490
 Si         6.1069780645       -7.9009722432       -2.0510063249
 Si         7.8676822448        5.8404141749        9.0075268155
 Si         9.1076201416       -5.4305313100       -4.7913986231
 Si         7.3307765130       -4.2966906663        9.4356812438
 Si        -1.8632609824        9.3222324288       -4.4477273574
 Si        -4.5561990712       -8.5223798120        5.3701135251
 Si        -0.4903033534       -8.6931468083       11.0015361191
 Si        -6.8668889058        2.9816836146       -8.3442560736
 Si         1.8574626790       -7.1287253078       -5.3999249731
 Si        -6.1326560257        8.0997807666       -7.5059446415
 Si         9.1799236972        5.7042058676       -4.4571334620
 Si        -7.4564264372        3.9458736063        6.9447167524
 Si        -0.8815896484       -6.2799670626        9.0286587842
 Si         9.0629348191        0.9711122469        5.5060939335
 Si         9.4108478885       -8.0552368237        0.8302924573
 Si        -5.0273998817        9.8219151642       -4.9370056950
 Si         0.2786958376        4.8939571669        9.2354224596
 Si        -2.5507885963        6.1172507973        8.5393093621
 Si         6.7650489091        3.1037612374       -7.7242544741
 Si         5.8255129665       -7.3255310640       -6.5644004792
 Si         2.8514842312        2.4983136084       -7.0874338520
 Si        -1.1360961606       -7.4505336726       -5.4851153044
 Si        -5.4569091016        2.6654161057       -5.5359281845
 Si         7.0486789341        7.0265739733       -1.2918232399
 Si         8.4977266840       -6.8477272841        3.7147472815
 Si         6.9731212435        8.3609863825       10.6252717700
 Si        -6.0366633979       -4.5136052092       -6.7259696707
 Si        -9.3522747398       -0.3689207966       -6.3963454375
 Si         0.7300917260       -8.1068457201        7.1399669052
 Si         8.4052366593       -2.9394869762       -1.5738748204
 Si        -4.2102638420        3.6028235089        9.5830099269
 Si         4.3115763029       -0.1590889116       -7.8774146872
 Si         0.6259905739        6.6942553486       -6.4633789875
 Si        -6.9867863020       -3.6136067912        7.6932537461
 Si        -2.5258004852        6.8611205482        5.5888391639
 Si         5.1983082633        9.0366289524        5.5807135714
 Si        -3.9389882590       -6.8925171420       -6.2674694750
 Si         7.4047080151       -9.1780942124       -4.6378826061
 Si         1.9024814811        9.7325308545        9.7042811608
 Si         6.8656751011        9.5254169395        0.2826222657
 Si         6.9317331337       -0.9397744494       -7.2926303512
 Si         0.0853272127        3.7533092530       -7.2911220429
 Si        -9.4478819377       -4.1975958666        2.9023721646
 Si        -3.5815329437       -5.8330328471       10.3342765446
 Si        -7.9142847893        1.1369765243       -4.2220390829
 Si        -7.7671418749        6.4967433626        0.3717280770
 Si        -6.2757088332       -8.4382582589        2.8097864489
 Si         6.5849005588        8.0696990906        2.9332911681
 Si        -1.7930627637        9.7841840947        6.3488379085
 Si         8.2955304309        4.1324076015       -0.5514736636
 Si         5.6535848300       -6.3858840620        5.1080671306
 Si         9.3169093210       -8.8907987638       11.0301857760
 Si        -9.7563781756        2.2600310675        8.0888666510
 Si        -9.1697549067        3.8043749541        4.3406664235
 Si        -5.8523611146       -1.0509079410        8.4690815189
 Si         9.2983099251        7.7091763286        6.9119648835
 Si         6.6248605064       -5.0503638146       -2.9604549064
 Si         9.7149223881        7.5866739257       -1.8983301955
 Si        -8.8072209584        3.5396469724        1.2908573358
 Si         2.7086031072        6.8208186504        9.4258274882
 Se        -2.3748188028       -1.7019626355        3.6416644104
 Se        -1.5681545214       -3.5746431975       -5.3034050730
 Se        -4.7293909065       -4.6837165499       -1.3271073410
 Se        -1.8572130843       -5.9005556156        2.3584372483
 Se         1.2089080850       -5.5470108215       -0.6645539605
 Se         1.6386795438       -8.0992001904        3.1783717954
 Se        -6.2995554850       -1.7114333979        2.0766637388
 Se        -4.2039705164       -0.9133605715       -4.4088391578
 Se        -4.7243274631        1.2064380685       -0.0047512719
 Se        -1.8749650542       -0.2813735196        8.2802777316
 Se         3.7123485214       -0.9393313484       -0.9545368261
 Se        -2.3321733288       -2.3077928846       -0.5836246125
 Se         1.2292854089       -2.2320414127        1.2984721816
 Se         0.6548261866       -3.8591753869        5.5151574610
 Se         4.8845147513       -5.1491958949        1.0111154215
 Se         5.6985211527       -4.1384852687        5.3862232560
 Se        -2.0598473448        4.3294212091       -2.1228471165
 Se        -3.9948933609        4.5529154418        2.2493533267
 Se        -0.8775931034        2.0135409274        4.7091935302
 Se         0.2257546882        0.3944204714       -2.8723123398
 Se        -0.7659232663        1.9602234215        0.6915692543
 Se         0.5972762300        5.1186038127        2.4479020814
 Se         1.2131931021        3.6479013240        7.5058830465
 Se         5.2380916375        0.8828036022       -3.8210993722
 Se         3.5977991361        1.7815623833        2.4719474593
 Se         1.5567166676       -0.1058997970        5.5731963870
 Se         3.7441896863       -0.9324095986        6.2435682461
 Se         7.6683791297       -1.7688081453        0.3441329542
 Se        -2.1141201574        8.3384247414        0.6712421362
 Se         2.7069145138        8.2892052382        0.9066840412
 Se         2.7454742155        3.9135392580       -1.7075921525
 Se         5.4849992066        6.0855280838        2.6677255748
 Se         6.5196476113        2.7851323631       -1.2026738660
 Cd        -6.3749292286       -2.9590958699       -0.1486001263
 Cd        -3.9657430421       -3.4595809692       -3.6089275032
 Cd        -2.7970967302       -4.2961436278        4.0422462325
 Cd        -2.5051100460       -0.0683053321        5.5461295940
 Cd         3.1978047230       -3.5620722654       -0.5287915770
 Cd        -0.7127618533       -4.2679688263        0.5295559505
 Cd        -7.4874216826        0.4172201035        0.6134910974
 Cd         0.9754385278        2.4017137599        2.6356876696
 Cd        -3.9172140655       -1.1211194850        1.1315590862
 Cd        -0.7683404963        1.9482132669        7.4936093316
 Cd        -1.4317334180       -0.9890909266       -4.3254823595
 Cd         5.2047533008       -0.6999281751        3.9406818577
 Cd         0.1230876094       -5.8115621905        3.9278301681
 Cd         3.2808658713       -3.5506006167        5.7141729297
 Cd         3.4644222957       -0.7138640472        1.7154501517
 Cd         2.6256717076       -6.3418293473        1.6287588455
 Cd        -1.6365542850        6.8072002821       -1.3821957565
 Cd        -3.3137933263        3.4045514457        0.0903106053
 Cd        -3.1851545683        3.1348983877        4.3173738428
 Cd        -4.2958375512       -0.1500136697       -2.0379026133
 Cd         0.2907407805        3.5608620423       -1.1554236031
 Cd        -0.2201047886       -0.4900646928       -0.2622410878
 Cd         0.4534729750       -1.4670213872        7.6295340520
 Cd         2.8011226621        0.3726754430       -3.2676632736
 Cd         6.2895657613        0.0971607243       -1.0997130502
 Cd         0.4181688350        5.0617355059        5.2068506344
 Cd         5.4419453417       -2.7244313796        2.2133194457
 Cd         0.4075316120       -1.7495012176        3.7364098998
 Cd         2.4963780240        6.4350502900       -1.0117276207
 Cd         0.3033010327        8.7911519016        0.9834052124
 Cd         2.8902625313        6.4168131163        3.0555538194
 Cd        -1.9104243720        6.1122390732        2.4023257584
 Cd         4.2533407372        2.9399044960        0.1167980853
