402
 i =     7100, time =    14200.000, E =     -5882.4004421674
  O         6.6647078006        1.9116375806       10.5572516151
  O        -5.3768929080       -3.3661755496       -7.6585638997
  O         9.0986248408       -5.5252870599        6.5407989426
  O        -7.6652595790        7.5606048795        1.4469417333
  O         1.7511898873        8.8553770752       -4.1206204285
  O         8.2952528532        7.5223405740        3.0781047010
  O        -5.9711157557        7.7248594998        3.5139246461
  O         5.2457767376        6.5706710263       -5.2333837206
  O        -8.0341216246       -5.2634931867       -0.9858722084
  O         8.7933867108       -2.8574026599        5.8085822833
  O         9.3215365093       -1.9233228994       -2.3965537750
  O        -3.2817749221       -1.9243270897       -7.6980739703
  O         8.4447140487       -0.7740914659       -6.4358553086
  O        -5.0402296232       -5.6940098662        9.7492039167
  O        -7.2835209538       -0.6809551093        9.3083853454
  O        -6.3976900024        6.1782596110       -0.4676983107
  O        -0.0072509705       -6.8026320755        7.7796077084
  O        -6.2980053587        1.4375158699       -4.6977292695
  O        -1.8013742075        8.1330430836        6.0694199367
  O         8.3889135800       -4.8352651490       10.5826610132
  O        -8.0727873343       -6.1746970035        5.4372817385
  O         6.8221764599       -7.0752291669        4.0479267375
  O        -8.5601025861       -0.5621125224       -7.7364822328
  O         4.0029914843       -9.5483388210        5.2223164816
  O        -7.7492363108       -2.8125518453       -3.2973132196
  O        -8.5529230016        7.0454878439        3.9425772143
  O        -3.0819389133        7.2823371917       -7.5073297084
  O        -7.0704622407        1.4080862871       10.7968317823
  O        -5.0346900340       -7.4325089406        6.2628344411
  O        -8.9302244062       -7.7648011357        7.2883483890
  O         0.8456802459        7.1608930017       -2.1184676842
  O         3.4395836520        2.9267128623       -5.6658272338
  O        -7.1784448041       -7.1543627593        2.9979304433
  O        -3.6919169444       -6.9505962192       -7.8460241432
  O         7.0174925166       -8.6986395314       -3.1810720681
  O        -7.2200946290       -4.2141130265        9.3263601602
  O         8.8846120401        6.1116573219        7.9132196300
  O        -3.9913348488        2.4490728362       -6.0174131993
  O         5.0446463221       -5.1281524728       -3.4970281966
  O        -6.9001047992        6.2419969652       -5.1500644503
  O        -5.9610598087        3.6585464834       10.0194586485
  O        -1.9985963139        9.6291927344        8.0629451258
  O         5.6829367414        2.8093194686        6.7974539016
  O         4.3696037950        3.6939883856        8.8491461707
  O         9.3822564889        1.9248198962        9.6802512555
  O        -2.4500282151       -6.1168808567        9.1110527982
  O        -7.6497615517        7.5927714402       -7.2747109846
  O         4.7448182383        0.3349871152       10.0841935958
  O         6.3119867840        8.8591264159        9.3215137085
  O        -0.0569262595        3.7557680213       10.5265439737
  O         5.8097235594       -6.9034103434        6.5559787543
  O         4.8714575926       -6.8729863403       -5.3462465257
  O        -3.4706294969        4.7385589924       -7.2587394761
  O         2.4538311746        8.1794981963        9.8270520681
  O         8.2865855790        3.2536319018       -7.4970924058
  O         0.7919973823        5.0239365421       -6.6725891602
  O        -8.5552264589       -1.9385652381       -5.6058842309
  O         9.3491516797        2.3828333569        4.9957306521
  O        -4.8754528301       -5.4805232004       -5.9986716780
  O         4.6535831398       -7.6925889987       -2.7466779579
  O        -8.4904599718        8.5028034609       -5.0756363870
  O        -1.8565305095        9.2332608600       10.7210721719
  O        -6.4067102832        7.5164535859        8.5935035950
  O         3.1110273195       -6.0818637489       10.3115669460
  O        -7.6835924353       -1.4222142518       -0.9034969814
  O        -6.1171824557       -5.0996595849        7.2111052711
  O         0.2751283350       -6.8204642302       -5.3209062990
  O        -6.9200601143       -4.0670490624       -5.4676992350
  O         6.4850307281        0.6685140901        8.2299575245
  O        -8.8301881883        0.6361384496       -5.3343875490
  O         4.3666399671       -4.3239778176       -7.4189243745
  O        -9.3967979134       -4.2333261260        1.0608023957
  O        -7.9956657998        4.9919896819        1.2032873897
  O         4.2829775053        4.9226471145        6.4902831140
  O        -6.7633919172       -9.8924974015       -0.8994057844
  O        -6.8734933050       -9.2608474698        8.3866292864
  O         4.4998400137        7.3152249192        5.7463758845
  O         6.6747536280       -2.5826266389       -7.1549029510
  O         3.1477040124        3.2602367655       -8.2237374642
  O        -1.2379119011        4.9344412311        8.6032122535
  O         6.9949517765       -5.8265753901        8.6801412030
  O        -5.4656460374        0.0330539663        7.4169983728
  O         9.8765389356        4.1472263707       -4.4473677395
  O        -5.6699365668       -5.5860017696        4.4435873886
  O        -7.6002831013       -9.7094661095        3.1936828236
  O         7.3697076001        0.9753863846        5.7563909950
  O         9.5140709313       -2.8237989600        3.3549514030
  O        -0.3461436102        7.3202908816       -7.3650200415
  O         7.3337654957       -8.4077965506        8.1242002014
  O        -7.6769954450        4.8877586437       -2.5161756001
  O         8.9620802035       -4.3367281588       -1.2885289703
  O         6.0088109725        6.2730415143       -2.6417033228
  O         9.1367219418       -5.8058296497       -6.4375582059
  O         6.1318251739       -3.6095229462        9.8738667637
  O         6.1026323498      -10.1287064106        6.6579902975
  O         8.9848397611        3.7928486715        0.8312184622
  O         8.4447841150       -3.6876862594        8.2684387623
  O        -4.7875962146       -1.8397335608        9.4317228599
  O         5.9319185470        2.6913073614       -6.2693174389
  O         6.7398377222        9.0532405478        1.6641665818
  O        -6.0788715796        9.0832740277       10.7320742017
  O         1.9749753528        7.7579992790       -6.4768165344
  O        -7.5605258921       -6.9362671066        9.5010089323
  O         7.1690899185       -1.7425515062        3.9663899209
  O         4.0501799390       -6.9083146324        4.6506673962
  O        -7.0182134791        5.1101774788        7.6069155490
  O        -8.3597104575        2.3323132357        0.2758370171
  O         4.8743259721       -7.5173064770        8.8790157757
  O         9.2201817235       -6.6667876884       -0.0756289719
  O         9.2577452922       -7.5679346437        4.8326377049
  O         6.8893672279       -6.3739356243       -1.9564249477
  O         6.9484162465       -3.4857393821       -2.4096876998
  O        -0.3587579104       -9.0579618834        6.1979289956
  O         9.8424731558        6.3059197465       -6.1338923098
  O         7.1850459874       -0.8449175549       10.4127572477
  O         0.6907946442       -9.6820616653       10.9008539073
  O        -2.4995267016       -6.6408383461       -5.5083167241
  O        -1.8491046178        8.7224119806       -5.7850010213
  O        -3.9988493338        4.8866109575        9.1920736081
  O        -7.0758174368       -6.0852227260       -3.3527870193
  O         7.5437505958        5.5432070837       -4.8138944140
  O         2.9387141112       -8.6779315689       10.2468268154
  O        -1.1755548987       -8.4420498161       -6.8774851160
  O         6.6973806259        8.6599089409       -4.9340567428
  O         5.9210752653        8.6282970372        3.9881245073
  O        -0.7965555770       -7.7590781695        9.9480500807
  O        -8.4783415223        7.5482402416        7.2533188648
  O        -0.6980784477       -2.8234579305       11.0232582490
  O        -8.5219676717       -8.4349487888        0.5937959232
  O        -5.6039132345        3.8902746995       -4.5269270367
  O         8.0700860839        2.6768526116        7.5578952598
  O        -5.2403245287        6.0150377867       -2.8665212333
  O         0.0938217876       -5.1460050658        9.8023239590
  O         8.3831604898       -9.1829882887        0.0451807550
  O         6.4597502513        8.1272920198       -0.6083617372
  O        -6.1229471768        9.7142896246       -3.5377798233
  O         8.6987076216        7.2593526692        5.5628580855
  O        -3.8828748333        7.1097441403        4.7891338864
  O        -4.0621079565        1.5344134889        5.7651082937
  O        -5.4891671279        8.8795114070       -6.0006775857
  O         8.9350111253       -9.3828104740       -4.9054690679
  O         7.3759514483        6.6670435926       10.1475243501
  O         2.2715821883       -8.7259447866       -5.9589735289
  O        -7.3205856083        7.5736357508       -2.5712257784
  O        -5.8274135076       -0.8057688612       -7.7752697948
  O         2.1195133770       -8.0250616557        6.3109611706
  O         6.7554171735       -6.0347251712       -7.1955450871
  O        -8.1657179550        2.3637836636       -3.1490474978
  O        -5.0989711928       -8.5603625915        3.8064321749
  O         8.7322888577       -5.3514915804        3.2221930646
  O         4.1112611203        9.0336582412       -5.7062866490
  O        -7.9922707766       -8.3293494960       -5.0392543420
  O         3.3120071823        0.6923714877       -6.9966643297
  O         6.4520220476        5.0921639296        8.2407973971
  O         5.8352021394       -0.1150505625       -6.8689012586
  O         2.4344749999       -6.1167016052       -6.6655047764
  O        10.2270811222        9.1191896509       -2.2340337458
  O        -8.8259150440        3.2118309857        2.8643514142
  O         4.7835342208       -7.7466674046       11.6367696853
  O        -6.5219807477        3.1021153875       -6.7068601738
  O         5.9086288164        8.0594168064       -7.4536081308
  O        -9.1912871368       -9.0961275003        9.5544285378
  O         4.2499602215       -1.8848321351       11.2911395510
  O        -7.9815579906       -4.6704786718        3.2631250952
  O        -3.6274854099        9.4575093842       -3.9717021219
  O         3.7595083300        5.8812158964       10.1883170268
  O        -6.3234650396       -2.4375385034        7.4407929582
  O        -5.1803268834        9.1574816015        5.7420281216
  O         7.5654356183        5.5680207966       -0.5936305783
  O        -6.3139572311        2.5734330725        6.7480812922
  O         0.3568121937        6.7539715159       -4.7027901828
  O         5.7030917169        4.3277100485       -8.3046107696
  O         5.1711392085        4.2306147124       -4.1257611912
  O         9.3363358942        3.8331546813       -1.8757479634
  O        -3.0630698643        5.8470100357        6.8481191703
  O        -1.2187895255       -8.6567971731       -4.2386355247
  O         1.0534872030       -2.7163129972        9.0238957661
  O         1.6996783221       -3.9084622764       11.3263823647
  O         8.2280132761        9.1052300211       11.0119226430
  O        -1.3948974200        3.2254598299       -6.7566803050
  O        -8.9185787569       -9.2329920379       -7.2435038282
  O        -2.9782236594       -8.7958744033        5.6836693857
  O        -8.0360651490       -0.1596184401       -3.0111944724
  O         9.1694661683        5.0679564007        4.1473048862
  O        -4.2738011325        9.2089740672        8.8763498391
  O        -3.4722904718        2.6721560974       -8.5783018208
  O        -1.5502335771        5.8437817230        4.7803805021
  O         1.1845830209        2.5049662268       -6.8849901210
  O         8.4365044405        8.6976646732        7.7104218087
  O        -2.7888676255       -4.5253748128       11.1152700466
  O         1.1274792558        5.8962954129        9.6779465232
  O        -6.8212761731       -5.6188216488       -7.7470050593
  O        -8.5324436930       -3.6614151079        7.0905365721
  O        -6.2384964074        6.8059612551        5.9457943033
  O        -3.6675295715       -4.9638294111        6.0866005456
  O        -4.2378751871        2.3085080620        8.3216927399
  O        -8.4237946037        3.6852962389       11.0374590879
  O         7.5761419704       -5.2458974605       -4.2844996323
  O         8.5895678791       -7.5242124537       10.8887964507
  O         8.7925754550        4.6117721069        9.8850956495
  O        -6.0050014805       -8.7471599696        1.3196913061
  O        -8.5574400036        3.0429409897        7.9118033109
  O         6.0829991447       -8.7161673713       -0.7044887882
  O         6.8484189203       -8.3372066360       -5.9518487270
  O         8.6191254321       -7.8259397386        2.2259464222
  O         2.2817284245        6.0787331072        5.1505797013
  O        -9.6216189459       -6.5881124638       -3.9412035114
  O        -6.3587938625       -7.2181731041       -0.7260853688
  O         9.9470686152        6.4479164968       -3.5442288887
  O        -9.7054450265        0.7628181333        7.0958315515
  O         2.6367395311       -6.8113507482       -4.0944262452
  O        -9.5837958004       -4.0855960236       -4.6559085284
  O         9.3259056541       -0.4661405282        4.8599463072
  O        -5.3047937801        6.7784092530       -7.7131394800
  O        -2.5395401692        7.2145824902        9.1548334629
  O        10.4345717385        6.5448590283       -0.8477773353
  O         1.1749557458       -9.1434039615        8.3879328375
  O        -7.9856741730       -8.3049981991       -2.5562783306
  O        -8.0942942693        4.0903442386        5.4366473995
  O        -1.1153291975        8.3423373128       -3.3057194481
  O        -4.7843439865       -8.0658967416       -5.4390123749
  O        -4.3081807237        6.1700884575       -5.2935059019
  O         8.3559656694        7.5669365320       -2.0411560411
  O         2.8863261289        6.6949906123        7.7418502296
 Si         3.1268197088       -8.2106257118        4.9485460583
 Si        -6.6891665367       -5.6119752787        9.9847806413
 Si        -4.0742986823        6.2221981714       -6.8739018068
 Si         6.2938527990        0.5279261541        9.7977634634
 Si        -9.5018760355       -5.1997687260       -0.2593190729
 Si        -9.4375858329       -6.8290031234        6.0555340460
 Si         9.2792868514        6.7140748102        4.1526573485
 Si        -8.1730228649        7.0971276019       -5.8153273696
 Si         3.9476882823       -7.4537344971       10.2435589460
 Si        -2.9700137147        3.2295183365       -7.1468357140
 Si        -9.0235607579       -9.4271699553       -5.6247629659
 Si         6.0950014027        5.6362585301       -4.1797541958
 Si         3.4118071460        6.2470926450        6.2784404878
 Si        -7.1956897177       -0.1968808351       10.8788374736
 Si         8.2911271271       -6.0630010955       -7.7730010386
 Si         6.2720775018       -7.1077664890        8.1049458607
 Si        -7.4300083719        9.4290411167       -2.3859650156
 Si        -5.0537233648       -5.7585280574        6.0480823778
 Si         4.2234929194        4.2401831086       10.4063804686
 Si        -4.8078599523       -1.9762633107       11.0800931943
 Si        -7.0339458514        6.7483133442        7.3786108282
 Si         2.5146268175        9.0545784648       -5.5389210079
 Si        -5.5880571450        5.5556763691       -4.4761646695
 Si         5.3776744527       -3.1274111888       -8.0366450788
 Si         6.9801421935       -9.9718633504        7.9670894634
 Si        -7.2133746544       -5.8866011229        4.0866162351
 Si         4.9105452393        2.8153629151       -4.9557183772
 Si        -1.7801762324        8.1233654375       -7.2314144669
 Si        -8.2003484389       -3.3065223202       -4.7693497494
 Si         5.2032729390        4.1517372954        7.5696337803
 Si         4.2790743452       -6.5634668615       -3.9158019571
 Si         6.8453151355        1.7013261322        7.0670720702
 Si        -8.8520019895        3.7989021238       -2.9644832594
 Si         9.2648411966       -3.9356263852        6.8951454561
 Si        -6.7530543279       -6.0093060827       -1.7011970107
 Si        -2.1439250758       -3.2024491199       -7.5736828205
 Si        -6.6704328613        6.1606974807       -2.0278885050
 Si         9.3715333349        3.3587545755       10.6281691522
 Si        -8.1450332326       -8.2022622258        8.6381696191
 Si        -2.7598536327        8.8029288675        9.1891961456
 Si         0.5241555169       -3.5808056199       10.2195990745
 Si         8.6654456944       -1.9674812552        4.4358993513
 Si        -5.0383891773        1.6003635258        7.0655061681
 Si        -6.9933030127       -8.5495427121        0.0063835054
 Si         2.9181810548       -5.0030121919       -7.8140712351
 Si        -5.9182273126        8.9845814790        9.1012638598
 Si        -8.4230937239       -1.6305128479       -2.3843021725
 Si         5.4318179138        8.0762087590       -5.8234522055
 Si        -8.1388030210       -7.2944354041       -3.7771957120
 Si        -7.5347964553        7.9811422362        3.0333003912
 Si        -5.3346939053        7.7664571866        4.9934227799
 Si         0.5245397803        7.8474558365       -3.5389040211
 Si         6.1567069780       -7.7997753302       -2.0487911047
 Si         7.8456772718        5.5800778645        9.0133744399
 Si         9.0062531883       -5.4911729676       -4.8312382557
 Si         7.4697951793       -4.3910470062        9.3401137851
 Si        -2.0274555891        9.3237296412       -4.3170599077
 Si        -4.5921396453       -8.7163994507        5.3822732891
 Si        -0.6435067813       -8.8784541582       11.0136893630
 Si        -6.9873767487        2.9867512556       -8.2727619168
 Si         1.8823920902       -7.1735200239       -5.5204085488
 Si        -6.0967862396        8.1613805139       -7.3434830474
 Si         9.2187173609        5.6403977902       -4.7083982799
 Si        -7.4574775244        3.7074997751        6.8795768274
 Si        -0.7569997486       -6.3162231043        9.1428091985
 Si         8.9931932065        0.8983802881        5.5764869777
 Si         9.3399662753       -8.0595119190        0.7613526558
 Si        -5.0435483998        9.8658002407       -4.7287773093
 Si         0.3313900452        4.5695721350        9.1790042023
 Si        -2.7719115618        5.6748344006        8.4405281913
 Si         6.6710615226        3.1017363033       -7.7038693229
 Si         5.8272113983       -7.2577153580       -6.5875787801
 Si         2.7868557610        2.2622084770       -6.9478539383
 Si        -1.1468129192       -7.5724263480       -5.4955545982
 Si        -5.5412497668        2.6688714190       -5.5352568557
 Si         7.1261202884        6.8674984280       -1.4653509790
 Si         8.3945093749       -6.9878806709        3.5955483490
 Si         6.9362446646        8.1294815299       10.6648389854
 Si        -6.0553865915       -4.6051803235       -6.7533712109
 Si        -9.2489498535       -0.6676950141       -6.2579727726
 Si         0.6785459751       -8.2211569001        7.1565571424
 Si         8.2718337065       -2.9046257372       -1.5796917418
 Si        -4.3853645485        3.3446746627        9.5966179138
 Si         4.3976941605       -0.2556209087       -7.7876686640
 Si         0.6508631648        6.6757611524       -6.2904653339
 Si        -7.0474388498       -3.8736444361        7.7273476573
 Si        -2.5182025830        6.7179833799        5.6474990250
 Si         5.1409467865        8.7493005391        5.4051495541
 Si        -4.0610373832       -6.8225342688       -6.2135455538
 Si         7.3227959115       -9.2639901854       -4.7122317864
 Si         1.8578399253        9.6582753475        9.7654855953
 Si         6.8675412838        9.4965702647        0.1538399857
 Si         7.1450306124       -1.0087242895       -7.3465744180
 Si         0.1718527563        3.6503445527       -7.2847425177
 Si        -9.4864455899       -4.3143412758        2.8014341498
 Si        -3.5615018237       -5.8771318118       10.3405899882
 Si        -7.8093450594        1.0798139950       -4.0706494037
 Si        -7.8643653704        6.3489297912        0.3730928163
 Si        -6.4623813481       -8.5794117558        2.8409441805
 Si         6.6891207285        7.8619509472        2.7412168378
 Si        -1.8271220059        9.6608030025        6.4330982293
 Si         8.2584265988        4.0355961225       -0.6464808495
 Si         5.6128197714       -6.4712630845        4.9956497441
 Si         9.3646661907       -9.0427409374       10.9275695365
 Si        -9.8329738076        2.0789324050        8.0388025302
 Si        -9.2494733616        3.6624955507        4.3515712130
 Si        -5.9682479950       -1.1940343054        8.3933625438
 Si         9.2672711183        7.4186633150        7.0873415086
 Si         6.6345727020       -5.0170554146       -2.9446764080
 Si        10.0324226654        7.4966145326       -2.2422953063
 Si        -8.8669637087        3.5041438265        1.1950847591
 Si         2.6084353036        6.6524983419        9.3627412002
 Se        -2.4054185857       -1.6793374124        3.7662827537
 Se        -1.6219534965       -3.6794043919       -5.3408612933
 Se        -4.8469745978       -4.6990144974       -1.5605305748
 Se        -1.9489603779       -5.8090505556        2.6721089821
 Se         0.9762269284       -5.3787036440       -0.8433475485
 Se         1.7079385393       -8.1504514519        3.0121067293
 Se        -6.1275252085       -1.6945084345        2.1045884396
 Se        -4.1220099166       -0.9063340009       -4.2962312965
 Se        -4.6646213964        1.3753961260        0.0455421497
 Se        -1.8580581763        0.0152355938        8.2533197810
 Se         4.0523962046       -1.1934479263       -0.9765820541
 Se        -2.3714878067       -2.4519917423       -0.4137635700
 Se         1.3618496894       -1.9633082177        1.4920110402
 Se         0.6521520903       -3.9896095724        5.7086538775
 Se         4.8610134683       -5.1766128076        0.8426042410
 Se         5.6786884680       -4.2575899785        4.8575569918
 Se        -2.1395585468        4.4951844222       -1.9961970145
 Se        -4.2492635900        4.6931331691        2.4402129880
 Se        -0.8583640475        2.1572904198        4.6505639636
 Se         0.1082844150        0.4074460725       -2.8111119089
 Se        -1.0712668785        1.8360003543        0.9252611391
 Se         0.7090703551        5.4081895064        2.1478208641
 Se         1.4903648033        3.4874018217        7.6630538573
 Se         4.9369858809        0.8579184761       -3.9334907409
 Se         3.6160379976        2.1806694020        2.8720719918
 Se         1.6165061693        0.0148005661        5.4562858736
 Se         3.6944736956       -0.9329591173        6.2649091361
 Se         7.9258412735       -1.7362481793        0.3080250125
 Se        -1.7949077030        8.3413935756        0.9474129927
 Se         3.0698320059        8.6304011070        0.5460305437
 Se         2.5917405281        3.7443710471       -1.5111775275
 Se         5.6379027435        5.8366879491        2.4489789547
 Se         6.4387698239        2.7429401151       -1.0446912906
 Cd        -6.2021295437       -2.9006483622       -0.2569006369
 Cd        -3.9432041876       -3.5290907728       -3.7329552850
 Cd        -3.0576102801       -4.1215162026        4.1480272395
 Cd        -2.8391634106       -0.2317054382        5.8348455671
 Cd         3.0789139062       -3.6423130009       -0.4587043792
 Cd        -0.7404803487       -4.3478806492        0.7956106480
 Cd        -7.3777715855        0.3923287722        0.6568748205
 Cd         0.9491361097        2.6249925350        2.4106024182
 Cd        -3.6603966517       -0.8231194594        1.3892455900
 Cd        -0.6574912417        2.0799445163        7.3274698255
 Cd        -1.4400408944       -1.3321380340       -4.1782708383
 Cd         5.2930145561       -0.4735456883        4.1208166360
 Cd         0.0844114562       -6.0178197197        4.2520443100
 Cd         3.2149494213       -3.5410225699        5.4858723457
 Cd         3.7650760791       -0.5924830630        1.7662578691
 Cd         2.5878072607       -6.4911451651        1.0888736981
 Cd        -1.4331900039        6.8210595402       -1.1412046110
 Cd        -3.1254486821        3.6731819006        0.3623489805
 Cd        -3.2888939370        3.0251236459        4.0893192362
 Cd        -4.3815467006        0.5063737447       -2.2486351058
 Cd         0.0534410253        3.2931148441       -1.0863877597
 Cd        -0.2893642695       -0.6077365557       -0.3443795096
 Cd         0.4395840534       -1.2352864360        7.5476488807
 Cd         2.5479160169        0.1319602215       -2.7146370834
 Cd         6.4009990039        0.1160916142       -1.0890310535
 Cd         0.5421389078        4.8123013072        5.0249485471
 Cd         5.9342274560       -2.7945408988        2.1812954065
 Cd         0.2707379386       -1.7586084287        3.9834985648
 Cd         2.5725825285        6.3348634961       -0.7236348028
 Cd         0.6327507593        8.4853518766        0.9148468226
 Cd         3.1398938794        6.5458592697        2.7341298131
 Cd        -1.9482977540        5.9154155217        2.4713892270
 Cd         4.2396070603        3.0349096148        0.4523156333
