402
 i =     5900, time =    11800.000, E =     -5882.4271248403
  O         6.5604465804        1.4536361271       10.6281904199
  O        -5.6157536627       -3.9814792827       -7.6431090438
  O         9.0272794316       -6.1109001046        6.6912289310
  O        -7.5626724345        6.9705903911        1.5639950298
  O         1.7180063666        8.1278741100       -3.8290296270
  O         7.9038896904        6.6499911611        3.1851713769
  O        -6.1847597472        6.9538067555        3.7621898588
  O         5.1204786487        5.9975632004       -5.1472198743
  O        -8.0276099054       -5.9389026644       -0.8990207442
  O         8.6356050550       -3.4600431349        5.8428304339
  O         9.2193199059       -2.5755876433       -2.5029638301
  O        -3.3361882914       -2.6813777250       -7.8084028382
  O         8.3595849542       -1.3620807759       -6.4547862554
  O        -5.1353262670       -6.3407809421        9.7975530282
  O        -7.3259200116       -1.5125765902        9.5486305373
  O        -6.5255382962        5.5366018370       -0.3755507557
  O        -0.1430805720       -7.5952461447        7.7550647585
  O        -6.5009159742        0.7477225728       -4.7823315711
  O        -1.8389095298        7.3800845043        6.1265143473
  O         8.1807146719       -5.6083927559       10.4904625171
  O        -8.1336424216       -6.9913746457        5.3439163368
  O         6.6023352988       -7.6542358888        3.8798473279
  O        -8.7005781611       -1.0490775849       -7.7309474140
  O         3.7854427840      -10.0495219376        5.2977488972
  O        -7.7684573807       -3.3713144982       -3.3432701410
  O        -8.8999009787        6.7179711251        3.7670030951
  O        -2.6720154739        6.0307411821       -7.3928282878
  O        -6.9109490418        0.7045748322       10.8260756477
  O        -5.0578577870       -7.9184540003        6.0738070461
  O        -8.8593729368       -8.1783547949        7.4420445128
  O         0.6052662201        6.7089223632       -1.8521981004
  O         3.5827017940        2.4487805425       -5.7490906225
  O        -7.1825575222       -7.6455907689        2.9423023111
  O        -3.7777098749       -7.8126790340       -7.8739611029
  O         6.9440658267       -9.4868813493       -3.1481953862
  O        -7.2669507261       -4.9962582499        9.2316389529
  O         9.0092859480        5.8669941482        8.4274416440
  O        -4.1461091817        1.4805376957       -5.9305151702
  O         4.8965252004       -5.6519251133       -3.3360892192
  O        -6.9448130261        5.4902905809       -4.8843335373
  O        -5.8639519705        2.9101992832       10.1453375971
  O        -2.1205389408        8.9252162927        8.1708066896
  O         5.6693053861        2.1764511712        6.9078725709
  O         4.6248900707        3.2654637983        9.0420041521
  O         9.2669373571        1.1450553034        9.8069562217
  O        -2.6517395223       -6.9794456990        9.0469478771
  O        -7.4784627483        6.7529877278       -7.1107047191
  O         4.5537599076       -0.2361974322       10.1668909393
  O         6.2588051028        8.0309814577        9.3280021369
  O        -0.4811412290        3.3915038077       10.6378510588
  O         5.7106434519       -7.8403487090        6.5237945418
  O         4.8161547369       -7.4061826501       -5.3093692990
  O        -4.0079558546        3.8966963433       -7.0936762303
  O         2.5907926136        7.6760319067        9.7875078459
  O         8.3102611721        2.7232734818       -7.3820805264
  O         0.3584798114        4.5291896854       -6.4853544095
  O        -8.7775680708       -2.5436626751       -5.6289173769
  O         9.3101602871        1.5794922014        4.9156045916
  O        -4.9123983943       -6.0820155236       -6.0767451136
  O         4.5649162367       -8.2332854257       -2.7505003092
  O        -8.3391408350        7.9280622103       -5.0405859320
  O        -2.0571871050        8.4657019159       10.8450540782
  O        -6.5841452615        6.9635500853        8.7130864888
  O         3.3842974191       -6.6230274816       10.2745644199
  O        -7.8800441536       -2.3059421972       -0.8643502256
  O        -6.2744089933       -5.6575402853        6.9692443035
  O         0.2578101175       -7.4041399854       -5.3030268971
  O        -7.0007248344       -4.6326235563       -5.5072163775
  O         6.3749247681        0.0784671793        8.3212642088
  O        -9.0349711219        0.0348895890       -5.2828596361
  O         4.1408517783       -4.8961965512       -7.2841502459
  O        -9.4849197148       -5.1410977519        1.2581326483
  O        -8.2985494597        4.4765816136        1.2140261663
  O         4.4670933907        4.3592451437        6.5877440837
  O        -6.8420726281      -10.5055890912       -0.9811173425
  O        -6.8420125788       -9.6987770384        8.4608239342
  O         4.1872289125        6.8666268499        5.7961159875
  O         6.3756989830       -3.0951894917       -6.9151560690
  O         3.2059098612        2.6669667148       -8.2557387818
  O        -1.2393899928        4.6028615863        8.4044752012
  O         6.4223849131       -6.3531837429        8.6800236569
  O        -5.6275205051       -0.5671574272        7.5292948698
  O         9.6094511384        3.4678930905       -4.1192322763
  O        -5.8151876907       -5.9826599605        4.4573580551
  O        -7.5633810863      -10.3197049775        3.3445056965
  O         7.2913344189        0.2874517576        5.9282722470
  O         9.4118464237       -3.4532969584        3.2302793394
  O        -0.3153488094        6.9923964674       -7.3001251107
  O         7.1325234559       -8.9712748955        8.4426286205
  O        -7.6000732596        4.0877653730       -2.2943463563
  O         9.1365916020       -4.8167334075       -1.1437640321
  O         5.9917439209        5.7397358398       -2.6006683527
  O         8.9965557065       -6.3685318548       -6.2638489856
  O         5.8908656106       -4.0168664506       10.0634911926
  O         5.8528565545      -10.6948472293        6.7769695002
  O         8.8621910392        3.2803657166        1.1020937466
  O         8.0941016232       -4.2506510922        8.2534195069
  O        -4.8571468302       -2.2592944590        9.5647977843
  O         6.1914729755        2.0175459550       -6.0665533404
  O         6.4458413281        8.4221341964        1.7864139525
  O        -6.2976132097        8.5207683579       10.8618391564
  O         1.9543833294        7.1211047153       -6.3258579993
  O        -7.4997026682       -7.5663235930        9.6508029831
  O         7.1075396051       -2.2516538953        3.9627657900
  O         3.9295406588       -7.5203408043        4.5954617691
  O        -7.4507453395        4.5713668170        7.8675853619
  O        -8.2472491448        1.7900850808        0.5042376994
  O         4.6900729346       -8.3538093690        8.8754646604
  O         9.1577173454       -7.3343901895       -0.0890791864
  O         8.9498031374       -8.1854118657        5.1539153711
  O         6.6849471722       -7.0122783937       -1.8676929420
  O         6.9530325596       -4.1454952028       -2.3133379585
  O        -0.5062776418       -9.7757582596        6.2318081577
  O         9.9232507179        5.5662095337       -5.7916893823
  O         7.1167220104       -1.0849082647       10.5532060106
  O         0.4430890858      -10.5729817048       10.5631058772
  O        -2.5095753986       -7.1745729674       -5.7323709915
  O        -2.2681410486        8.1869364893       -5.8665173077
  O        -3.7702907795        4.0925321582        9.1837114708
  O        -7.3241222418       -6.6993838867       -3.3638043703
  O         7.4736035736        4.9956961793       -4.7016103889
  O         2.5963099718       -9.0818103575       10.2995050912
  O        -0.8810571380       -9.0949366079       -6.8004550241
  O         6.6690245753        8.0629056496       -4.8938597615
  O         5.7734779188        8.0363903410        4.1469263717
  O        -1.0512126310       -8.4456557717       10.0988545892
  O        -8.6359531949        6.8826243936        6.9897679565
  O        -0.8451364819       -3.7205342250       10.9473622920
  O        -8.6195967933       -9.2853003110        0.7246144183
  O        -5.4867866970        3.2784645760       -4.5932413708
  O         8.2683941714        2.0328174007        7.5539910370
  O        -5.3442585921        5.0868982345       -2.7888175945
  O        -0.1613297066       -5.9584201605        9.7443895587
  O         8.2848326325       -9.9977420320        0.2604966615
  O         6.1653781046        7.4237550965       -0.5737028709
  O        -6.3707076972        9.0293018339       -3.6600021457
  O         8.5230789939        6.5167134218        5.6914544914
  O        -3.8523192058        6.6827653518        4.7784001486
  O        -4.1956926006        0.9111474193        5.9510816884
  O        -5.3991111700        8.1953849418       -6.0298193278
  O         8.9167500236      -10.0452091033       -4.8300109256
  O         7.3316199558        5.9823396226       10.4182331887
  O         1.9938772735       -9.3882584035       -5.5292699755
  O        -7.2384231890        6.9190118549       -2.6035771087
  O        -5.8272038369       -1.4106006134       -7.5985233633
  O         1.8398637532       -8.3052073788        6.0584766059
  O         6.6057981450       -6.7214932126       -7.2670390934
  O        -8.2466876322        1.6915628162       -3.0367239332
  O        -5.0394798805       -9.1385060455        3.7270687157
  O         8.9257124129       -6.1073395812        3.5125298083
  O         4.0201842673        8.4291971205       -5.5049737376
  O        -8.1507910560       -8.7723896017       -5.1696234759
  O         3.0175735294        0.1422209430       -7.1222968434
  O         6.6706441976        4.4693187044        8.2478326059
  O         5.5990766250       -0.6502070003       -6.9027012597
  O         2.4673519145       -6.9829622147       -6.7479431527
  O        10.2408510216        8.4529563884       -2.3167532993
  O        -8.7422922057        2.5633724032        3.0390366573
  O         4.8125043354       -8.4464571285       11.5881083694
  O        -6.6106710317        2.5408377442       -6.7268711861
  O         5.8452837752        7.4731184229       -7.3543394038
  O        -9.1533318336       -9.6574793350        9.7152092401
  O         4.0389363077       -2.4195347679       11.4403431472
  O        -7.9953348796       -5.1558828430        3.3537273975
  O        -3.7749317530        8.8052422465       -3.8699753298
  O         3.5694759222        5.2768532413       10.2556671560
  O        -6.4146604779       -3.0178799086        7.5154458407
  O        -5.4297782324        8.6510600603        5.8498708887
  O         7.4378448359        4.9709368006       -0.5169142036
  O        -6.2527506005        2.3276876954        6.9656892429
  O         0.1124824449        6.3422652581       -4.7017563008
  O         5.6076902643        3.8042555500       -7.9016397806
  O         5.2405596366        3.6471903258       -4.1304522092
  O         9.3499584860        3.1334056140       -1.4609426679
  O        -3.3075116451        5.3425434534        6.9545710814
  O        -1.5453542184       -9.0894586937       -4.2528472785
  O         0.9388089062       -3.4659803620        9.0102694696
  O         1.5299483566       -4.8851816422       11.2544111617
  O         8.1623459910        8.4622053596       11.0608906782
  O        -1.6482649729        2.5163227967       -6.5427637083
  O        -9.1611558185       -9.8955027278       -7.0803757519
  O        -3.0321069484       -9.5914630695        5.7040023616
  O        -7.9440623233       -0.9021976595       -3.0880369345
  O         9.1126476059        4.3750870105        4.1943268436
  O        -4.4267171803        8.5948412420        9.0801099368
  O        -3.3373512840        1.9202461533       -8.5292870767
  O        -1.6531790283        5.1316727163        4.7472004492
  O         1.0812304936        2.0971875293       -6.8920521953
  O         8.3251370888        8.1135802606        7.7941947370
  O        -2.8731901425       -5.3669569212       11.0462089557
  O         0.8678730876        5.5629204694        9.8445196219
  O        -7.1360285710       -6.0516979472       -7.7710571999
  O        -8.6620610701       -4.3393894419        7.1502273451
  O        -6.1440847921        6.0819919190        6.1995977890
  O        -3.7031148732       -5.5204186404        6.1302133572
  O        -4.2449622667        1.5721398566        8.5043770624
  O        -8.5564053180        2.8719968616       11.0129482168
  O         7.3909529592       -5.8994491040       -4.2014086267
  O         8.6463433455       -8.1995601132       11.1754980374
  O         8.5362412224        3.6996358024        9.7226340660
  O        -6.0524795007       -9.3911594156        1.3329836498
  O        -8.4614582207        2.3162114287        8.2106896163
  O         5.8385568112       -9.3975805254       -0.6177906874
  O         6.8635830181       -8.8869021564       -5.8408635230
  O         8.6874759650       -8.4149024486        2.3542551230
  O         2.1915442092        5.2372899382        5.2972377125
  O        -9.8504165737       -7.3448656528       -3.8397978152
  O        -6.4300842275       -7.9957662368       -0.7546463887
  O         9.7231069987        5.8520403776       -3.1577181636
  O        -9.5634983221        0.1325086358        7.1365987570
  O         2.5852024664       -7.1723212429       -4.0602783039
  O        -9.4691145911       -4.8049521534       -4.5395894929
  O         9.3081499020       -1.1691347335        4.7808151326
  O        -5.1073759469        6.2511264080       -7.7442022392
  O        -2.7569019242        6.5209259501        9.2427684872
  O        10.2979264689        6.3611439428       -0.5776364843
  O         1.2535505957       -9.8914693890        8.1602441223
  O        -8.1207072835       -8.9639935092       -2.4614785675
  O        -8.4335701818        3.4461350667        5.7080234141
  O        -1.1551343404        7.9680029507       -3.2136098881
  O        -4.6961625533       -8.7649965566       -5.4176409728
  O        -4.2236959597        5.6232570562       -5.2028578208
  O         8.1218504089        7.1653681125       -1.8683339651
  O         2.6808373257        5.9280458654        7.8732049032
 Si         2.8899224518       -8.7274984500        4.9012761497
 Si        -6.7497818626       -6.2531673447       10.0682347935
 Si        -4.0834879404        5.4190800950       -6.8201569174
 Si         6.1108838329        0.1071998287        9.9139081503
 Si        -9.4904100232       -5.8406762232       -0.1921433184
 Si        -9.4390787229       -7.3866554826        6.1638432597
 Si         9.0118809513        6.0329133617        4.2022130902
 Si        -8.0799183173        6.4022693522       -5.6499249880
 Si         3.9069642279       -8.1240342851       10.2664109204
 Si        -3.2548162901        2.4340077627       -6.9418055366
 Si        -9.0260151271      -10.0208665126       -5.5212308725
 Si         5.9820828516        5.0798170891       -4.1254442996
 Si         3.3677557006        5.6041338578        6.4034442589
 Si        -7.1990819762       -0.8784822467       11.0470177039
 Si         8.1530577671       -6.6867434880       -7.6425987624
 Si         6.0384673956       -7.8281970870        8.0883042780
 Si        -7.4795991186        8.7346317021       -2.4794651851
 Si        -5.1512410148       -6.2976732926        5.9463997068
 Si         4.2395488763        3.7709149231       10.4988132694
 Si        -4.8896908088       -2.6374074502       11.1307134157
 Si        -7.2247923483        6.1113442701        7.4043710789
 Si         2.4029546364        8.4340079107       -5.3286511424
 Si        -5.5878531304        4.8684165386       -4.4161980331
 Si         5.1817271189       -3.6822890788       -7.9073907414
 Si         6.8664901732      -10.6002460229        8.0849983119
 Si        -7.2546458950       -6.4900990624        4.0188624522
 Si         4.9733386100        2.2275388077       -4.9605567313
 Si        -1.8481142316        7.3376524389       -7.1448690799
 Si        -8.2395355844       -3.8196332476       -4.7898741979
 Si         5.4355023351        3.6744410670        7.6945563213
 Si         4.1971259832       -7.1107155224       -3.8743420809
 Si         6.8905107424        1.2022185031        7.2065176477
 Si        -8.9299802722        3.1558318817       -2.6905522816
 Si         9.1160463147       -4.5019069291        7.0050835385
 Si        -6.8437429895       -6.7202907600       -1.6848125325
 Si        -2.2412413954       -3.9220187007       -7.6244253995
 Si        -6.7477085411        5.4966152353       -2.0046883715
 Si         9.3248196435        2.6006418046       10.6988604466
 Si        -8.1542853428       -8.7408671663        8.7379908704
 Si        -2.9451275123        8.1080244361        9.2838126637
 Si         0.3461455437       -4.4346652750       10.1717555663
 Si         8.5712532045       -2.6008160351        4.4608585649
 Si        -5.1796831580        1.0639174188        7.2464529665
 Si        -7.1089265027       -9.2885820369        0.0094889476
 Si         2.8380111028       -5.7353408792       -7.8249007227
 Si        -6.0972567870        8.4381771037        9.2235063875
 Si        -8.4783073775       -2.2983509855       -2.3210568359
 Si         5.3715563288        7.4698130049       -5.8044152229
 Si        -8.3136660201       -7.9761325972       -3.7297223596
 Si        -7.5936524961        7.4058635260        3.0765406213
 Si        -5.3779872529        7.1207415909        5.1698135077
 Si         0.3595776306        7.2638366271       -3.3676887830
 Si         6.0696831842       -8.5333697726       -2.0655337192
 Si         7.9117014393        5.0756227398        9.2133078811
 Si         8.9309416842       -6.0774458098       -4.6546489833
 Si         7.1337666789       -5.0645228053        9.3732192301
 Si        -2.1570333208        8.7081254619       -4.2838453073
 Si        -4.6057190673       -9.3072303398        5.3300089182
 Si        -0.7690798735       -9.6204317141       11.0632319142
 Si        -7.0219460883        2.2890470299       -8.2776111027
 Si         1.8673244708       -7.7147430791       -5.4263342945
 Si        -6.0606709686        7.5325046001       -7.2800767478
 Si         9.1414571911        5.0355053439       -4.4196041465
 Si        -7.6542645482        3.1464809740        7.1600672914
 Si        -1.0053753170       -7.1382845075        9.0836641225
 Si         8.9666623731        0.2120984981        5.6544522501
 Si         9.1516256695       -8.7394083507        0.8139089489
 Si        -5.0823830603        9.1767241143       -4.6377136185
 Si         0.0593103561        4.2654927556        9.3339846748
 Si        -2.7965201436        5.1483381711        8.4729695074
 Si         6.6612284384        2.5816429258       -7.5728166066
 Si         5.8005307947       -7.8813697678       -6.5171098483
 Si         2.7119590343        1.8128763611       -7.0309779684
 Si        -1.1572289804       -8.1342657970       -5.4970505680
 Si        -5.6643983795        1.9515047216       -5.4415003218
 Si         6.9702602488        6.2730473885       -1.4162440047
 Si         8.2854053463       -7.5974618005        3.7152973705
 Si         6.8687834964        7.5414810398       10.7544212108
 Si        -6.1497686113       -5.2223834678       -6.7336852460
 Si        -9.4226311276       -1.2395418813       -6.2704126185
 Si         0.5962419153       -8.8957263240        7.0115771092
 Si         8.2640124843       -3.4866970827       -1.5360717579
 Si        -4.3220572773        2.6404185021        9.6954828557
 Si         4.1896468355       -0.8198910429       -7.7207511110
 Si         0.6127204620        6.1530101983       -6.2451360176
 Si        -7.1287072928       -4.5025932820        7.6787681856
 Si        -2.6329060010        6.0385912422        5.5573278738
 Si         4.9575769819        8.2174063055        5.4966196690
 Si        -4.0355586865       -7.4753712477       -6.2628040415
 Si         7.3345149206       -9.9198390650       -4.6251780393
 Si         1.7918871042        9.0865803733        9.6692668899
 Si         6.7142671912        8.7987623373        0.2080909978
 Si         6.9418450110       -1.6286532212       -7.3261352428
 Si        -0.1905433856        3.1143235007       -7.1339361095
 Si        -9.4837999227       -4.9417453556        2.8628931971
 Si        -3.6636423873       -6.6540276797       10.3408509615
 Si        -7.9284013396        0.3922990317       -4.0527605541
 Si        -7.8856002917        5.8131750533        0.4435669682
 Si        -6.4882043963       -9.1711004419        2.8856330128
 Si         6.3912504616        7.2313514610        2.8284703688
 Si        -1.9131418877        8.8913385819        6.5848349167
 Si         8.1546565680        3.4939802268       -0.3533700697
 Si         5.5250372362       -7.1241379233        5.0027924661
 Si         9.2204543853       -9.6967559520       11.0292567425
 Si        -9.7455084929        1.3137584072        8.2043845061
 Si        -9.3795325590        2.9912025046        4.4654465377
 Si        -6.0877205349       -1.7978632460        8.5188764067
 Si         9.1817036758        6.8721711257        7.1957150196
 Si         6.4375494347       -5.6577052947       -2.8372926480
 Si         9.7791791794        6.9989870218       -2.0391482024
 Si        -8.8610596689        2.9901723101        1.4614291123
 Si         2.4071052360        6.1041926195        9.4318282707
 Se        -2.5215302607       -2.1813766194        3.9616025695
 Se        -1.6986408170       -4.1285517142       -5.4532666706
 Se        -5.0191704364       -5.4470508205       -1.4781195651
 Se        -2.0669083517       -6.2634626502        2.2105434112
 Se         1.3117719774       -5.8065077969       -0.5176277055
 Se         1.6635649397       -8.7207873068        2.8465859574
 Se        -6.3018126339       -2.2095895406        2.1963181728
 Se        -4.3062834959       -1.4793521103       -4.3313093834
 Se        -4.5871790669        0.4608878535        0.1268251741
 Se        -1.7487773708       -1.1335919027        8.3607843579
 Se         3.7694807017       -1.3323054048       -0.5638465177
 Se        -2.3623124362       -2.8266923556       -0.2927925506
 Se         1.1415878872       -2.4655882417        1.6633855495
 Se         0.7990842834       -4.7265924364        5.3193148141
 Se         5.0827505357       -5.4183660038        0.9571760756
 Se         5.6903018512       -4.9210967821        5.1417915693
 Se        -2.2236975677        3.4322483226       -1.9630290626
 Se        -4.2176574495        3.7276824858        2.6669258251
 Se        -0.7575645668        1.5127072958        5.0866703432
 Se         0.0561281008       -0.4268082751       -2.7498385052
 Se        -0.8467068370        1.1196944247        0.9722656521
 Se         0.4972585867        4.5124399427        2.3305559714
 Se         1.2627766793        2.8930707556        7.9880959298
 Se         4.9528931113        0.2205974901       -3.8597367698
 Se         3.4500013951        1.4748166250        2.8932701396
 Se         1.5886540583       -0.7406354629        5.8970908352
 Se         3.5864396233       -1.8686734805        6.9782482017
 Se         7.9830966289       -2.1760287189        0.3088708493
 Se        -2.3783741998        7.6549013565        0.6090844527
 Se         2.7114117362        7.8897436812        0.8604487977
 Se         2.6916461015        3.2565256048       -1.4351824275
 Se         5.3411313593        5.2134022591        2.6780735006
 Se         6.3518528481        2.1793350129       -0.8870712390
 Cd        -6.3034560810       -3.5720840108        0.0425052280
 Cd        -4.3513608410       -4.0167249135       -3.7077930546
 Cd        -2.7527380482       -4.8245506930        4.4026710492
 Cd        -2.7210334756       -0.7078999992        6.0451088503
 Cd         3.1504784380       -3.8767991247       -0.2535081326
 Cd        -0.6324220224       -4.6117325169        0.6510837756
 Cd        -7.0843477405        0.0430381883        0.9149878417
 Cd         0.8302381483        1.7281176205        2.8750793481
 Cd        -3.6762363838       -1.5586486064        1.6169999853
 Cd        -0.1467694215        0.8141928931        7.9861961049
 Cd        -1.5213196341       -1.6978686963       -4.5138774248
 Cd         5.3692141356       -1.2096479365        4.8964216226
 Cd         0.1233500385       -6.7555881504        3.6838222573
 Cd         3.2588054011       -4.1891823428        5.5288282050
 Cd         3.6351339617       -1.2160751565        2.3282515528
 Cd         2.9567024867       -6.7829776345        1.4887676906
 Cd        -2.2396626421        5.7737687954       -1.1829490340
 Cd        -3.2478697118        2.7198482191        0.2698953247
 Cd        -3.1043553241        2.0521921459        4.2862701121
 Cd        -4.1853615092       -1.0015975247       -1.9204588165
 Cd         0.1501834050        3.0672848388       -0.7285792868
 Cd        -0.3753006813       -1.1280914582       -0.1878216222
 Cd         0.1430865097       -2.5977069241        7.2554449368
 Cd         2.6139704884       -0.1892034942       -3.0116063964
 Cd         6.2697625400       -0.4530490290       -0.6645344928
 Cd         0.2327381710        4.1456335796        5.4224888071
 Cd         6.0738049893       -3.2460083904        2.0959091973
 Cd         0.1823919427       -2.1841077210        3.9755538022
 Cd         2.4733187073        5.8768614962       -0.8914298490
 Cd         0.1918133978        7.8616936647        0.4664434042
 Cd         2.7658047081        5.8110035451        2.9733751474
 Cd        -1.9245224119        5.4075435266        2.4142503990
 Cd         4.0403489611        2.6534138544        0.7588901316
