402
 i =     5100, time =    10200.000, E =     -5882.3856425534
  O         6.7729420414        0.9375945615       10.7265195906
  O        -5.5550424710       -4.1718748033       -7.4861647412
  O         9.0831162929       -6.3036365913        6.6564484575
  O        -7.6458507859        6.5194561019        1.6028282332
  O         1.5346940314        7.8198405043       -3.9644125339
  O         8.0867674739        6.5185907013        3.2768981657
  O        -5.9232955163        6.6959433959        3.6147869489
  O         5.2221186941        5.7957691844       -5.2253125705
  O        -8.2264912387       -6.3687559420       -0.9494265423
  O         8.6068533088       -3.8153975800        5.9676402959
  O         9.1846906457       -2.7625146535       -2.3596235362
  O        -3.3079722148       -2.9642448979       -7.6964240217
  O         8.4139038396       -1.5808685085       -6.3983719992
  O        -4.9672893920       -6.3639265552        9.7229906445
  O        -7.3289288633       -1.6365263790        9.3763859899
  O        -6.4600001700        5.3703725587       -0.3977591301
  O         0.0290583862       -7.8314644731        7.7096337453
  O        -6.3560236514        0.5172545465       -4.5723783679
  O        -1.8072596011        7.1590565418        6.1067882383
  O         8.3577013133       -5.7742806234       10.7274274639
  O        -8.1100628124       -7.0296732659        5.4489801750
  O         6.6461166040       -7.8007267698        4.0045235301
  O        -8.6278051832       -1.1511073061       -7.6185596823
  O         3.7227081096      -10.3393606917        5.1630529456
  O        -7.7806103823       -3.6644391291       -3.1769097481
  O        -8.7358996671        6.3138993575        3.8916220463
  O        -2.9469687924        6.1107744908       -7.6522054989
  O        -7.0582998575        0.5463358707       10.5001870327
  O        -4.8441958107       -8.2057746707        6.1889119070
  O        -8.8295378629       -8.4696494919        7.3760674435
  O         0.5947892098        6.2002588092       -2.1162285160
  O         3.5024298179        1.9872838413       -5.5633633314
  O        -7.1138340009       -8.1275331005        3.1496132614
  O        -3.7564502727       -7.8857208459       -7.9089338574
  O         6.8546125636       -9.3920316656       -3.1627590694
  O        -7.1719822229       -5.0419207975        9.2886190595
  O         8.9904707211        5.4216983669        8.2128234474
  O        -4.0465787106        1.3605196282       -5.9644821932
  O         4.8771572797       -5.9490999852       -3.2325736983
  O        -7.0704850908        5.3007213772       -4.9499958478
  O        -5.8052833359        2.6911431637       10.1126893472
  O        -1.9765113689        8.8326238771        8.0937417285
  O         5.7155653683        1.8871126138        6.9193635357
  O         4.4867784874        2.7862437393        8.9779795281
  O         9.4118653575        1.0987311796        9.7078083600
  O        -2.4563608326       -7.1099228098        9.1080265272
  O        -7.7912276181        6.5763064551       -7.2449621220
  O         4.7844716892       -0.6180029702       10.1031762368
  O         6.2454242266        8.1552701821        9.4569254955
  O        -0.1930402041        2.7646303204       10.6637276963
  O         5.8229655353       -7.7749250200        6.5873427305
  O         4.7731934569       -7.5519938732       -5.1650583177
  O        -3.6058560634        3.7276887656       -6.9769164672
  O         2.5448628036        7.1993236962        9.7357342690
  O         8.3602353301        2.3604196558       -7.3628644132
  O         0.8803095548        4.0395761089       -6.6439658870
  O        -8.4680936833       -2.6356452837       -5.5909943172
  O         9.6314035150        1.3569361168        5.0781921638
  O        -4.9195325758       -6.3632871221       -5.9538666640
  O         4.5704960548       -8.4072422573       -2.5416615916
  O        -8.4789939537        7.7294360134       -4.9816491669
  O        -1.9677831738        8.3727559601       10.8314309245
  O        -6.2077092467        6.8242866389        8.4595949377
  O         3.1901041399       -7.0954837913       10.5805248449
  O        -7.9229606686       -2.5720160136       -0.7329569139
  O        -6.1412359491       -5.8862034145        6.9984640308
  O         0.1760931960       -7.6791491079       -5.0685702459
  O        -7.1211399101       -4.8902046268       -5.4307777929
  O         6.6533690045       -0.1726320225        8.2932448993
  O        -9.0105941027       -0.1718615656       -5.1687237219
  O         4.3407212636       -5.1971937803       -7.2428881733
  O        -9.2951039094       -5.3130761133        1.2644368688
  O        -8.0427877488        3.8717512116        0.9468932620
  O         4.4170788795        4.0843086492        6.5521002270
  O        -6.5554856846      -10.7638519070       -0.9661975368
  O        -6.8529278836       -9.9459441963        8.3558986167
  O         4.2752057500        6.5645614085        5.9492016591
  O         6.5210960491       -3.4869917317       -7.0263433727
  O         3.1597675947        2.4082921986       -8.1582422550
  O        -1.1800553493        4.2708888868        8.8149042154
  O         6.7701008396       -6.5484654080        8.7717155533
  O        -5.4344568202       -0.8098323138        7.7224285823
  O         9.8200614027        3.2333051262       -4.2334707152
  O        -5.6855664643       -6.3489280860        4.4073742487
  O        -7.3637923785      -10.7587470722        3.3571896322
  O         7.4358894926       -0.0416218370        5.8207229252
  O         9.6312839241       -3.6429554114        3.4805331770
  O        -0.3363177027        6.2671564222       -7.3917748396
  O         7.3040591983       -9.0943707010        8.1780170559
  O        -7.6252646355        3.9560097361       -2.2801148111
  O         8.8984187125       -5.2098565550       -1.2484172437
  O         6.0119095307        5.4715727061       -2.6273529559
  O         9.1148205181       -6.7137462936       -6.1606536649
  O         6.0587619582       -4.4218310866       10.1080869705
  O         5.8365318110      -10.8032338095        6.8343500000
  O         8.8662334363        2.9039543193        1.0036494946
  O         8.2179950753       -4.4142091885        8.4194621824
  O        -4.8460043875       -2.7995132814        9.5634840091
  O         6.0953492467        1.8328474838       -6.1151415006
  O         6.4715501245        8.2928528056        1.9086173946
  O        -6.3334481262        8.2705505392       10.6721580835
  O         1.9685696944        6.6900328026       -6.3462596067
  O        -7.4719560015       -7.5916628660        9.5121912605
  O         7.3822225723       -2.4525924441        3.9652856019
  O         3.9598717098       -7.6354672003        4.7532970113
  O        -7.0924451402        4.3284369700        7.6877007640
  O        -8.4497021112        1.1543050801        0.6099790862
  O         4.9631203702       -8.4672684568        9.0941552099
  O         9.0877022963       -7.5454827607        0.1920399587
  O         8.9451168514       -8.3614597387        5.0462216983
  O         6.6823738129       -7.1295560345       -1.7520815450
  O         6.7305832845       -4.2920633755       -2.1591997038
  O        -0.2653469019      -10.0455915503        6.2223890690
  O         9.8069242001        5.3764755907       -5.7956534807
  O         7.2034656873       -1.6327775615       10.5032370669
  O         0.5885899405      -10.6749401353       10.8994129482
  O        -2.5787118719       -7.4951199329       -5.5299463131
  O        -1.9329551880        7.8269592990       -5.9891587339
  O        -3.7186536143        3.8215084828        9.3586855994
  O        -6.9384265109       -7.1314587248       -3.1204102784
  O         7.5516247552        4.6213376644       -4.4678347267
  O         3.0264837487       -9.7112247779       10.2220346410
  O        -0.9673636343       -9.0450611082       -6.8749263363
  O         6.5315197203        8.0316754331       -4.8442939138
  O         6.1480402376        7.7876758726        4.5010025979
  O        -0.7235837197       -8.5355457064       10.0934382817
  O        -8.4516822741        6.7839295379        7.3481219291
  O        -0.8417273772       -3.8362624472       10.9337303729
  O        -8.4329839192       -9.2938605285        0.6867709589
  O        -5.5729335666        3.1696204545       -4.5940495989
  O         8.1370182656        1.9824585543        7.4387602304
  O        -5.2858208281        5.1272504536       -2.9102262900
  O        -0.0204871153       -6.0056082045        9.5111327789
  O         8.3434292980      -10.2366670798        0.4205456645
  O         6.3386623936        7.0843078696       -0.4094263047
  O        -6.2882467886        8.7754736230       -3.7906063424
  O         8.7684290130        6.2938799977        5.7511434631
  O        -3.8595906331        6.2298211291        4.9280771326
  O        -4.3918455048        0.8283663268        5.9207108763
  O        -5.6738458544        8.0419101010       -6.2314325602
  O         8.9003836383      -10.0452545938       -4.6148269792
  O         7.3983520215        5.9749994866       10.2952970522
  O         1.9037314059       -9.5817295791       -5.7689705610
  O        -7.2951043086        6.6493080451       -2.5085537280
  O        -5.8117031558       -1.5433728748       -7.7849789737
  O         2.0273167617       -8.6678533965        6.3256465770
  O         6.5557953307       -6.8352690039       -7.0132669628
  O        -8.1968169129        1.5192270345       -2.9978766569
  O        -4.9343032226       -9.3644056633        3.8184468270
  O         8.7893394327       -6.1393096919        3.4132049270
  O         3.9754703569        8.2198549998       -5.4118775635
  O        -8.1195385438       -8.9915898263       -4.9523089676
  O         3.2698908078       -0.2249405924       -7.0645626857
  O         6.4633159862        4.2533761493        8.3419913607
  O         5.7170028685       -0.9897652798       -6.8322483663
  O         2.3297634145       -6.9183355404       -6.4210066301
  O        10.2817737218        8.1049903910       -2.3023967759
  O        -8.7016803888        2.2927647531        2.9457563187
  O         4.9280596572       -8.8275784629       11.8222182170
  O        -6.4060277634        2.0026925178       -6.7138501567
  O         5.9112953591        7.3324054660       -7.3200018380
  O        -9.0162964116       -9.8042626131        9.8385511142
  O         4.1854530643       -2.7553978429       11.3925463729
  O        -7.8902718693       -5.5629307392        3.3417670005
  O        -3.7676637756        8.3729408043       -4.2584792029
  O         3.6475870018        4.8610138267       10.2661444325
  O        -6.3193752973       -3.2531836365        7.5065598996
  O        -5.2296285158        8.4477088450        5.7519215850
  O         7.6142263676        4.7980221157       -0.4759566594
  O        -6.5024777663        1.6262774269        7.3169721391
  O         0.0888670086        5.7412320170       -4.7654729231
  O         5.7500640669        3.2537395589       -8.1733156048
  O         5.2595840472        3.3599599030       -4.1622104730
  O         9.3998619829        3.0492074298       -1.6083760930
  O        -3.0641136404        4.8440822517        6.9707971756
  O        -1.5940272640       -9.5402594978       -4.3369880627
  O         1.1273940320       -3.7121511120        9.0280090593
  O         1.6433629770       -4.9949855606       11.2803927672
  O         8.1733546244        8.4212762840       11.0244692882
  O        -1.4436205796        2.2921277795       -6.4883372810
  O        -9.1360609449       -9.9980503383       -7.0084189248
  O        -2.8536181735       -9.7627549405        5.5988822770
  O        -8.0383922331       -1.0314139419       -2.9162501840
  O         9.2843416938        4.1964650741        4.4392684489
  O        -4.3440384271        8.6993669978        9.0944559443
  O        -3.2494403019        1.6306581456       -8.4386569044
  O        -1.4885700954        4.8795761777        4.8416127880
  O         1.1827864774        1.5027748291       -6.7336567648
  O         8.3399209909        7.8413544103        7.8376221477
  O        -2.8948580254       -5.4483701988       11.2124640297
  O         1.1359731341        4.9128090939        9.8345356973
  O        -6.9389601627       -6.2541941705       -7.7089474119
  O        -8.6040576306       -4.4965171466        7.1030794057
  O        -6.0879553341        5.8892557880        6.0505786172
  O        -3.6326888276       -5.7912889133        5.9051852263
  O        -4.1544663557        1.2940205791        8.5078954473
  O        -8.4322446791        2.6531596642       11.1285332393
  O         7.5161590590       -6.1021552665       -4.0913185812
  O         8.3936339561       -8.3783228573       11.1897494590
  O         8.7833166062        3.6605728809        9.9176079342
  O        -5.8934715409       -9.8132334881        1.3441727104
  O        -8.7529008239        2.5205916159        7.8783047168
  O         6.0508966164       -9.5775935641       -0.5525477523
  O         6.9008193667       -9.0963068172       -5.8479452194
  O         8.6946860382       -8.6487652199        2.4195367455
  O         2.2920918390        5.0425760271        5.0627338104
  O        -9.5105164314       -7.2829485768       -3.7307542057
  O        -6.3531095822       -8.1574870792       -0.4932765238
  O         9.8156151219        5.6707374020       -3.3081657678
  O        -9.6675620232       -0.0839512452        7.2346252254
  O         2.4734962683       -7.5482328447       -3.8497803999
  O        -9.7070420047       -4.7238355489       -4.5753158908
  O         9.6050003828       -1.4229489963        5.0453594525
  O        -5.3753396274        5.8940264387       -7.8715985309
  O        -2.7514008240        6.4333932197        9.0933360529
  O        10.3221521586        5.9434376982       -0.5754710083
  O         1.2606765692      -10.1858619532        8.3567522755
  O        -7.9511847620       -9.3013309523       -2.4352933253
  O        -7.8190971856        3.0990253832        5.4641618933
  O        -1.3362101866        7.3397777852       -3.4049006653
  O        -4.8473622070       -8.9775269252       -5.7089153907
  O        -4.5521091204        5.4018185077       -5.5115528310
  O         8.1885289740        6.8678347479       -1.9216519961
  O         2.4654908475        5.5573987072        7.7127289082
 Si         3.0114230505       -8.8914541279        5.0763581386
 Si        -6.6065026481       -6.2730012290       10.0708931071
 Si        -4.1574200612        5.1721818795       -7.0250510742
 Si         6.3915690886       -0.3376770053        9.8783828686
 Si        -9.6041049635       -6.0852644932       -0.1811100330
 Si        -9.4461467671       -7.5741498810        6.1562580542
 Si         9.1690682650        5.8370004056        4.2869851888
 Si        -8.2235004382        6.2517465089       -5.7155263570
 Si         4.1046107359       -8.5246561902       10.4236241952
 Si        -3.0170939738        2.2274948362       -6.8900603739
 Si        -9.0972563683      -10.2054944221       -5.4510560518
 Si         5.9891673720        4.8230841728       -4.1517159068
 Si         3.3385132081        5.2460598965        6.2854189523
 Si        -7.2473982913       -1.0026090815       10.9448118348
 Si         8.1395740931       -6.9094529895       -7.5184189999
 Si         6.2236152991       -7.8861470284        8.1603345390
 Si        -7.3387958580        8.4381938134       -2.4831417322
 Si        -4.9614807899       -6.5525619639        5.9239859904
 Si         4.2648058059        3.4197198849       10.4570011124
 Si        -4.9046395552       -2.8963986223       11.2482061676
 Si        -7.0165214298        5.8985217001        7.3791836833
 Si         2.3212469429        8.1450740706       -5.3682977976
 Si        -5.6685514959        4.7785881886       -4.4373147696
 Si         5.2219964429       -4.0148111777       -7.9341957208
 Si         6.9563352285      -10.6858262441        8.0264160615
 Si        -7.2033337427       -6.8330172045        4.1074148904
 Si         4.9765722686        1.8861130247       -4.8841131015
 Si        -1.7481083475        7.0034577800       -7.3205985856
 Si        -8.2504506293       -4.0072720095       -4.7428374786
 Si         5.3215520593        3.2890933494        7.6810682772
 Si         4.1457855020       -7.3398798821       -3.6664813952
 Si         6.9273682277        0.8917132163        7.0728103581
 Si        -8.8513507279        2.9682491200       -2.7705512374
 Si         9.2152127518       -4.7681565595        7.1245221920
 Si        -6.8096343553       -6.9664220634       -1.4998802200
 Si        -2.1469785588       -4.1506506302       -7.5521875255
 Si        -6.6659667986        5.3221346293       -1.9790631635
 Si         9.3987417706        2.4630258501       10.7060517521
 Si        -8.0440012942       -8.9379850829        8.7821205216
 Si        -2.8375965914        8.0536797679        9.2112395261
 Si         0.5133136595       -4.5868603066       10.1904323160
 Si         8.7618266727       -2.8380254389        4.6248431229
 Si        -5.1620136259        0.7671898283        7.3760662006
 Si        -6.9057905883       -9.5256368761        0.0953123441
 Si         2.8587305828       -5.9892116278       -7.6455304040
 Si        -5.9182747667        8.3106986682        9.0970163817
 Si        -8.4917621910       -2.5000036570       -2.2056756125
 Si         5.3653330102        7.3234937633       -5.7516853985
 Si        -8.1536760330       -8.1586992184       -3.5277398093
 Si        -7.4019336641        7.0029778975        3.1114160508
 Si        -5.2653502536        6.8958148643        5.0909123065
 Si         0.3011662161        6.7721629967       -3.4989691913
 Si         6.0430486890       -8.6937759776       -1.9262813252
 Si         7.8586166238        4.8303181326        9.1683012871
 Si         9.0269619530       -6.2417747924       -4.6078022568
 Si         7.3709226354       -5.2557285715        9.5384598237
 Si        -2.1734296995        8.3427323613       -4.4533332805
 Si        -4.4503262828       -9.5449398485        5.3699792676
 Si        -0.7188523835       -9.7369372720       11.0995885325
 Si        -6.9101157479        1.9671914494       -8.2256768770
 Si         1.7743515750       -7.9219430179       -5.2763899353
 Si        -6.2921900043        7.2124721873       -7.4515936097
 Si         9.1711576138        4.7396812115       -4.4424286845
 Si        -7.4464305404        2.8544773662        7.0326428806
 Si        -0.8486603241       -7.2698097871        9.0038286455
 Si         9.1673481529       -0.0492250356        5.7221384196
 Si         9.3393453356       -9.0020563317        0.9459164416
 Si        -5.1411200449        8.9156719125       -4.9456667127
 Si         0.2551828222        3.6168807228        9.3648299833
 Si        -2.6931949958        4.7771773919        8.5866796662
 Si         6.7631377892        2.1169980749       -7.5085948127
 Si         5.7405095012       -8.0876967926       -6.3032046405
 Si         2.7832121749        1.3625233104       -6.9410377403
 Si        -1.2165058435       -8.3688888543       -5.4466685925
 Si        -5.5905339485        1.7252945118       -5.4187946319
 Si         6.9561286528        5.9245630185       -1.3584451178
 Si         8.2273705672       -7.7424886965        3.6714243331
 Si         6.9252811230        7.4700638753       10.7783471108
 Si        -6.1243300627       -5.4327351411       -6.6067107757
 Si        -9.3462600896       -1.4050949734       -6.1777954317
 Si         0.7825627961       -9.2442915686        7.2002903969
 Si         8.1687303834       -3.6985453526       -1.4039411483
 Si        -4.2378813168        2.3124704297        9.7955133451
 Si         4.3967786026       -1.1266591156       -7.8352336158
 Si         0.7403303539        5.6651277153       -6.2641670233
 Si        -7.0382805944       -4.6935940569        7.6805349565
 Si        -2.5361090195        5.7247020344        5.6634797148
 Si         4.9630611603        7.9457481019        5.5872000059
 Si        -4.0094223820       -7.7051492765       -6.2828160139
 Si         7.2886424917      -10.0009933123       -4.5946166372
 Si         1.8365212631        8.6836884972        9.8362642369
 Si         6.8232896663        8.5390702928        0.2775537423
 Si         7.0040230417       -1.8963725627       -7.2484214065
 Si         0.1294738033        2.6108592922       -7.0962511495
 Si        -9.4267006780       -5.1660717236        2.8639556859
 Si        -3.5266391895       -6.7025093605       10.3816576898
 Si        -7.9305051218        0.2449755091       -3.9800892039
 Si        -7.9002942484        5.4159319529        0.4786697748
 Si        -6.3167144800       -9.4997413043        2.9330399008
 Si         6.5374350448        7.0465892635        3.0824195140
 Si        -1.7388670517        8.7215713926        6.4459331189
 Si         8.2568513032        3.2716067542       -0.4754565207
 Si         5.5314361647       -7.1977455451        5.0787910241
 Si         9.3155277024       -9.7821595599       11.0389399714
 Si        -9.9050029326        1.3487392831        8.0631589950
 Si        -9.1392294949        2.8301431340        4.4689412837
 Si        -5.9475024376       -2.1257401198        8.5527893758
 Si         9.2890967243        6.6474492745        7.2274438269
 Si         6.5340923113       -5.8682194951       -2.8028402856
 Si         9.8038302281        6.6563141597       -1.9708418700
 Si        -8.8883802482        2.5312380408        1.3273622513
 Si         2.5010793225        5.6797031300        9.3401978799
 Se        -2.5881233549       -2.1739069576        3.8806456932
 Se        -1.2351085567       -4.4407002632       -5.4465771409
 Se        -4.9411808965       -5.5844906534       -1.1395877326
 Se        -1.8779118366       -6.3839408724        2.3694181277
 Se         1.4820149447       -6.2930963833       -0.3319075883
 Se         1.6294950870       -8.6506852474        3.1473676832
 Se        -6.2147927594       -2.5976464199        2.3322866406
 Se        -3.9197950118       -1.8599169140       -4.3730596274
 Se        -4.9581117428        0.3454275197       -0.0139138991
 Se        -1.7631707343       -1.3211628738        8.4101770630
 Se         3.6669966832       -2.0112107328       -0.7345471992
 Se        -2.2254545801       -2.9546499913       -0.3370965544
 Se         1.0700663014       -2.3409252011        1.4423188341
 Se         0.7223036561       -4.4654975843        5.3589290237
 Se         5.1892580324       -5.6631027332        1.1203937604
 Se         5.6426030553       -4.8993111829        5.1777213629
 Se        -2.1274880020        3.2914545909       -1.8582988977
 Se        -4.2538021741        3.7302565238        2.6138001222
 Se        -1.2510786771        1.3973642826        5.0188699120
 Se         0.2076563811       -0.3790981695       -2.9947779131
 Se        -0.9839100504        1.1218944871        0.7620058291
 Se         0.6225512642        4.1782929553        2.4099407659
 Se         1.2436075622        2.4909712890        7.7825847796
 Se         5.1348152902       -0.1047505654       -3.6883935675
 Se         3.1934084009        1.1472443626        2.7778364035
 Se         1.6959101333       -0.5728321841        5.7565200739
 Se         3.8653856881       -1.5740010499        6.4820027229
 Se         7.8108448098       -2.3688900098        0.3736603771
 Se        -2.0151765800        7.5014004668        0.7383175326
 Se         2.9014916020        7.5177749262        0.6889884420
 Se         2.7244486043        3.0821181687       -1.3373511585
 Se         5.4026127980        4.9961750139        2.7355640993
 Se         6.3772841317        2.0384110504       -0.9321479423
 Cd        -6.3190068165       -3.8715520519        0.1470395255
 Cd        -4.0587352945       -3.9593785769       -2.9114165012
 Cd        -2.8527810174       -4.8174888345        4.2127862059
 Cd        -2.9294475898       -0.8546240474        6.0965225028
 Cd         3.3237596282       -4.5184655347       -0.2950608865
 Cd        -0.4492456445       -4.8242175118        0.8362774031
 Cd        -7.6229802001       -0.6571103998        0.6816618011
 Cd         0.6652649959        1.3806160618        2.8196720785
 Cd        -3.9151506790       -1.8273349497        1.3370728678
 Cd        -0.5546565032        0.6823629211        7.5817867904
 Cd        -1.1791940961       -2.2043021088       -4.0132435767
 Cd         5.3731023962       -1.4408343785        4.2547481573
 Cd         0.0447870581       -6.8041341446        3.9869422177
 Cd         3.2877599932       -4.2318865412        5.9442425399
 Cd         3.5675633139       -1.3023871910        1.9423479034
 Cd         3.0725416393       -7.0385724210        1.6701733183
 Cd        -1.7992669119        5.6937279301       -1.2498859585
 Cd        -3.3651655241        2.3928587094        0.5465954507
 Cd        -3.6388304017        2.2384399674        4.4799143908
 Cd        -4.1558416965       -0.3609986523       -2.2681895921
 Cd         0.2865206864        2.9578452387       -0.4256760689
 Cd        -0.3462397296       -1.1386117403       -0.5419914194
 Cd         0.3389937696       -2.5282939037        7.4913335926
 Cd         2.7984120516       -0.4967837900       -2.7233666466
 Cd         6.2665940488       -0.8143654758       -1.0837071909
 Cd         0.4631778334        3.9118526382        5.2881853369
 Cd         5.9286713563       -3.4045319377        2.3468920883
 Cd         0.0613226838       -2.1190031238        3.9300908512
 Cd         2.4029945674        5.4816716837       -0.9181440058
 Cd         0.4173026457        7.8316811481        0.8427638240
 Cd         2.8191274803        5.5605752289        2.7730433918
 Cd        -1.8975448005        5.2238429413        2.4895100481
 Cd         4.3490942427        2.4323732008        0.7378105691
