402
 i =     9200, time =    18400.000, E =     -5882.3924421726
  O         6.3732674491        3.1310254402       10.0594355225
  O        -5.3509572968       -2.4182375223       -7.9692242718
  O         9.1191026029       -4.4858433485        6.1988280014
  O        -7.4246925948        8.6064223805        0.9649807634
  O         1.8149752901        9.5587653949       -4.3864749958
  O         8.1034563314        8.1027039786        2.6548363978
  O        -5.8586694191        8.4107607335        3.1677247360
  O         5.3920723156        7.5421297060       -5.7068275704
  O        -8.2405427727       -4.4077130651       -1.3049342072
  O         8.6121253032       -1.8859303948        5.4346095961
  O         9.3762456710       -1.0784146845       -2.9955946057
  O        -3.1752035110       -1.0937067880       -8.2433245311
  O         8.5054799268        0.3633202479       -6.8090826042
  O        -4.9128694375       -4.9166252587        9.1714245349
  O        -7.2314827778        0.0059647341        9.0089585688
  O        -6.4868385411        7.0535919025       -1.0253513708
  O         0.0200971957       -6.0987701445        7.4376731030
  O        -6.2390411186        2.1794926237       -5.1061992743
  O        -1.8289962607        9.1477953915        5.7075381047
  O         8.3204926467       -3.9357523101       10.1524837365
  O        -8.0227443232       -5.3241500199        4.9430710019
  O         6.7508336222       -5.9932476598        3.5751706284
  O        -8.5194824931        0.3657758159       -8.1324555594
  O         3.9526538124       -8.4436616790        4.7229164650
  O        -7.5784529400       -1.7897376269       -3.6335056324
  O        -8.6105054404        7.9385472419        3.1169935361
  O        -2.6301562253        7.5110799745       -7.9812146693
  O        -7.0396966024        2.2608277649       10.0692249592
  O        -5.2932623444       -6.4028195631        5.7555481609
  O        -8.8829284467       -6.7179082712        7.0215171313
  O         0.6692015249        7.9762246900       -2.4545879088
  O         3.5173616306        3.8945861247       -6.2163727681
  O        -7.4749559559       -6.3379986945        2.6274426138
  O        -3.8712766625       -6.2078344250       -8.2429014483
  O         7.0399495168       -7.8085580953       -3.7397147075
  O        -6.9781443628       -3.3084326730        8.8637858738
  O         8.7361480517        7.0708547754        7.2957550680
  O        -3.9657107413        3.0311879246       -6.5758754662
  O         4.9476375535       -4.2045299042       -3.7537334242
  O        -6.9044570823        7.0332945758       -5.6498599517
  O        -5.6733993321        4.5574144015        9.7128432232
  O        -2.0357754040       10.9084820817        7.6209644424
  O         5.7806220754        3.8708575317        6.4477770789
  O         4.3259619827        4.7942214553        8.4237787153
  O         9.4589881911        2.9508272935        9.2983818744
  O        -2.3979315341       -5.6571941009        8.8099626375
  O        -7.5420598340        8.3826095265       -7.7015822277
  O         4.8081185610        1.2292064101        9.6908698242
  O         6.4083354036        9.8584093873        8.8364554344
  O        -0.2022341801        4.5794288947        9.9786162307
  O         5.6362583175       -5.9118871010        6.1223545958
  O         5.0022065422       -5.9432400189       -5.6373755676
  O        -3.9698966547        5.3597902984       -7.7097391318
  O         2.6316744528        9.1328298303        9.0710563496
  O         8.3241870043        4.2944708226       -7.9486634974
  O         0.8265863759        6.1073661660       -7.3619392009
  O        -8.6460011461       -0.8317277734       -5.8752608953
  O         9.6594935445        3.2103118711        4.6062224246
  O        -4.7463297973       -4.5462192013       -6.4166794864
  O         4.8238983009       -6.7601450401       -3.2071065222
  O        -8.1807430820        9.5214798781       -5.4669217342
  O        -1.8826498182       10.0983802805       10.3859264025
  O        -6.2917340073        8.6284159944        8.2920102998
  O         3.3530259603       -5.1187642101        9.8835570223
  O        -8.0038081309       -0.5072112127       -1.2541069585
  O        -6.3465581051       -4.0691415962        6.5376987055
  O         0.3275330522       -5.9871049200       -5.7400539490
  O        -6.6964353735       -2.9107326534       -5.8186185053
  O         6.7469875860        1.6790991421        7.8318727636
  O        -8.8643780867        1.8326476466       -5.8118771768
  O         4.4007367446       -3.4547059052       -7.7969567351
  O        -9.6425877734       -3.4099077112        0.7316877418
  O        -8.0598200181        5.9401383263        0.7065837926
  O         4.6138379221        6.0278613431        6.0638237887
  O        -6.7686969555       -9.0323219846       -1.2602642969
  O        -6.8859542695       -8.3089803587        8.0683866747
  O         4.3252056897        8.4350257392        5.5577763075
  O         6.6216026319       -1.5017780989       -7.5477005190
  O         3.2017590035        4.2362451989       -8.7170282032
  O        -1.1171683855        6.3141761574        8.3768804215
  O         6.7329367092       -4.7904501861        8.1938470200
  O        -5.5775943402        1.0786490627        7.3097270958
  O         9.8349259423        5.0327051466       -4.8606706143
  O        -5.8249563264       -4.4214950023        3.9603044128
  O        -7.3798386217       -8.9554575073        2.8343567499
  O         7.5218965481        1.8887898160        5.4310318998
  O         9.5512682812       -1.8754140117        2.9366973522
  O        -0.3273734572        8.5263926213       -7.4194574964
  O         7.3530142530       -7.3018404783        7.6762109108
  O        -7.6177692985        5.7471352538       -2.9552592944
  O         8.8534857066       -3.4671005763       -1.6325999254
  O         5.8971140562        7.3149359696       -3.0217561930
  O         9.2915965056       -4.9021088403       -6.7512240691
  O         5.9826669350       -2.6734083284        9.6243633745
  O         5.8277917843       -9.0753145831        6.3421940267
  O         9.1376213389        4.6948384112        0.3636405992
  O         8.2220314219       -2.6312420392        7.8936938059
  O        -4.7940756217       -0.9587333714        9.0692844915
  O         6.1195362786        3.7180370908       -6.6423505201
  O         6.4332579078       10.0447366690        1.3422360675
  O        -6.1991174300       10.1616675076       10.4580329989
  O         2.1065239161        8.6836572285       -6.9623402578
  O        -7.3760524877       -6.0207917850        9.1663294523
  O         7.2574924130       -0.5341970156        3.4221271875
  O         4.0235542998       -5.9055681686        4.1436895359
  O        -7.1387023752        6.1872625888        7.3403086613
  O        -7.9892677875        3.1112330643        0.3369901076
  O         4.9087016671       -6.7437799741        8.5635760427
  O         9.0282558266       -5.7927821935       -0.3038777409
  O         9.1338524519       -6.6812520775        4.5968118267
  O         6.9645826248       -5.4341447460       -2.3067353363
  O         6.9343039054       -2.5367170432       -2.9899697042
  O        -0.3234515863       -8.0122765675        5.6612227304
  O         9.8714727808        7.3373390443       -6.3130272100
  O         7.3259579430        0.5234515557       10.1259067075
  O         0.7825371561       -9.0068509818       10.4106806453
  O        -2.4158373373       -5.7134592385       -6.0230217387
  O        -2.3970378094        9.8201777183       -6.3871736648
  O        -3.7327804945        5.9267466427        8.9138446721
  O        -7.0353871521       -5.2499976654       -3.5585876373
  O         7.6275024381        6.4753187189       -4.9862624320
  O         2.9244097846       -7.7333176039        9.7358034390
  O        -0.7731508718       -7.6427094906       -7.1997373561
  O         6.6601079777        9.6097211468       -5.4097408721
  O         6.0812893799        9.3893251547        3.8889588541
  O        -0.4252973093       -7.0220022184        9.6974467761
  O        -8.5486410838        8.4521274427        7.0271456760
  O        -0.7851182946       -2.0293454511       10.4343607916
  O        -8.5498591430       -7.8024129921        0.2900583184
  O        -5.4603645544        4.7077205572       -5.2171037239
  O         8.2875897844        3.7033852318        7.1471517066
  O        -5.2849872438        6.5580724558       -3.4348045693
  O        -0.1012440809       -4.4652687247        9.6011833542
  O         8.3473229904       -8.4841769340       -0.2142521682
  O         6.4689608999        8.8063268444       -0.7990343360
  O        -6.1675231004       10.7190291572       -3.9695009277
  O         9.0176088674        8.2988896333        5.0347178797
  O        -3.8593026186        7.9914238223        4.5740425862
  O        -4.2150811967        2.3038228418        5.4263310032
  O        -5.4800883586        9.6901544923       -6.4095734070
  O         8.9738347928       -8.3747856139       -5.3795030219
  O         7.5538205704        7.7116973726        9.7636546385
  O         2.1017485819       -7.8468874135       -6.3039858408
  O        -7.0408784900        8.4994883475       -3.0702158043
  O        -5.7669516791        0.1225450722       -8.1389408012
  O         2.0601003050       -7.0098669500        5.8446216739
  O         6.8002413160       -4.9633477075       -7.4663885799
  O        -8.1423597511        3.3617026915       -3.6400854725
  O        -5.1126667830       -7.6037061634        3.3895428392
  O         8.9015999410       -4.5028831803        2.9142036580
  O         4.0810673293        9.8791936715       -5.9809986955
  O        -8.0218646009       -7.1459295337       -5.4237165310
  O         3.1841964789        1.6279190150       -7.6864584876
  O         6.5042988877        6.0923753356        7.9865013504
  O         5.8268454583        0.8489705634       -7.1372446558
  O         2.4940663624       -5.2413179743       -7.0045195275
  O        10.3492687449        9.8746310893       -2.7698684434
  O        -8.4982202371        4.2247298884        2.5421742241
  O         4.9169866864       -6.7397074394       11.3413243806
  O        -6.4539509014        3.7256969591       -7.2671321526
  O         6.0239530482        9.1844638134       -7.8522899859
  O        -9.0150333861       -8.1585401599        9.3111853494
  O         4.2049880260       -0.9657656128       10.9990735314
  O        -8.0389151705       -3.7036833685        2.7129523860
  O        -3.6967403652       10.1959635284       -4.3155182333
  O         3.6245966234        6.8995749068        9.8730019515
  O        -6.3346609031       -1.4305730461        6.9403417869
  O        -5.1840516579       10.1266069183        5.4238132044
  O         7.5491756061        6.3741072667       -1.2606024725
  O        -6.3137644366        3.5693180645        6.6113316595
  O         0.4930957427        7.4240963710       -5.1755121389
  O         5.7169646140        5.3810838438       -8.5271108309
  O         5.2140395477        5.1719621843       -4.4745706184
  O         9.2750101489        4.6470241337       -2.3211077941
  O        -2.7976490736        6.8065012858        6.5498280173
  O        -1.3461171975       -7.7965074300       -4.5865864645
  O         1.1349481984       -2.2805988657        8.5662703853
  O         1.7387488988       -3.3222081295       10.9025097993
  O         8.3256202701       10.1091934860       10.5674075996
  O        -1.5129848448        4.1807401826       -7.2269020782
  O        -8.8897646538       -8.3223240192       -7.4978572434
  O        -2.9721618598       -7.8824604367        5.1877342852
  O        -7.9013180017        0.8859116344       -3.4650774461
  O         9.3350679973        5.9322560614        3.8438853326
  O        -4.2782261803       10.4907255858        8.7536473209
  O        -3.2627697886        3.3471517787       -9.1265716726
  O        -1.3944495214        6.8981141158        4.2778807669
  O         1.1290763471        3.4046873614       -7.3380102154
  O         8.4981527011        9.7154950247        7.1053685812
  O        -2.8737118614       -3.7433543388       10.5839828231
  O         1.1367040833        6.9382191158        9.3649089545
  O        -6.6760976455       -4.5316835092       -8.1955485703
  O        -8.6355071094       -2.5155106529        6.9099949124
  O        -6.2729946427        7.8406998620        5.6564104390
  O        -3.8573899660       -3.8951846438        5.5483120853
  O        -4.1157992142        3.4404575924        7.8389574260
  O        -8.3968651020        4.4960792893       10.6008517263
  O         7.5963213361       -4.2893406938       -4.7546496300
  O         8.7804517345       -6.6172147464       10.6635813083
  O         8.9198367850        5.5480014131        9.2999295241
  O        -6.1162884686       -7.7197484908        1.0025774298
  O        -8.5659846053        4.2537198022        7.5326575635
  O         6.0138955890       -7.9431209785       -1.2082442620
  O         6.8955370102       -7.5195218012       -6.5472321875
  O         8.7800347649       -7.0811568141        2.0009435039
  O         2.3528388236        6.7580352907        4.5743756214
  O        -9.5840541949       -5.5867163602       -4.1044690101
  O        -6.5790070484       -6.3073191560       -1.0478358441
  O         9.8455771906        7.3482066619       -3.7224404416
  O        -9.4801383078        1.7704224952        6.7747352351
  O         2.7222039397       -5.8786585907       -4.3888889530
  O        -9.2424160093       -3.2112365132       -5.0896862453
  O         9.5046732182        0.3953748633        4.3758663372
  O        -5.0756712494        7.8685314673       -8.2906584850
  O        -2.6328587107        8.4182784670        8.5832053630
  O        10.3316220969        7.7763452652       -1.0676392395
  O         1.2670566323       -8.5300676985        7.8131357825
  O        -8.1089006800       -7.5196784014       -2.8052655625
  O        -7.9172671826        4.9707472149        5.0714103118
  O        -1.0562175092        9.0768206649       -4.0135736878
  O        -4.6169987542       -7.2282002609       -5.8640885185
  O        -4.4011474971        7.0618009733       -5.8906562098
  O         8.1690967955        8.6593926688       -2.5907588126
  O         2.6448495714        7.2068450905        7.2326387854
 Si         2.9583295887       -7.1740232778        4.5199769414
 Si        -6.5057390861       -4.6879208814        9.5796362327
 Si        -4.0575141483        6.9312308303       -7.4905927662
 Si         6.3783846885        1.6300164795        9.4213281885
 Si        -9.7140074423       -4.3625844144       -0.5742180800
 Si        -9.3648292278       -5.7798762889        5.7631572561
 Si         9.2413257685        7.5816598723        3.6485529438
 Si        -8.0444397730        8.0211253503       -6.1826618229
 Si         4.0375155192       -6.5824065834        9.9254383705
 Si        -3.0760805706        3.9866834729       -7.5824082225
 Si        -8.8663783365       -8.4490049540       -5.9217743793
 Si         6.0581320196        6.6621251598       -4.4946167834
 Si         3.4215102443        7.1272945408        5.7631483471
 Si        -7.1514803586        0.7445790642       10.4565721163
 Si         8.3492136360       -5.1343131957       -8.1121768356
 Si         6.1454225780       -6.1645142258        7.6506683514
 Si        -7.4157293851       10.2331544922       -2.8332400691
 Si        -5.2162273046       -4.7565858375        5.4731109344
 Si         4.2556737166        5.3410281944       10.0010049855
 Si        -4.7590340035       -1.0681173841       10.7011163055
 Si        -7.0499275574        7.7931745007        7.1108937577
 Si         2.4646057474        9.9420974385       -5.8358284484
 Si        -5.5483925730        6.2852181551       -5.0257802821
 Si         5.3339210284       -2.1603198684       -8.3581849814
 Si         7.0303413564       -8.9096723617        7.4347768795
 Si        -7.3407984531       -4.9518987968        3.5185659244
 Si         4.9662279679        3.8230938209       -5.4463069762
 Si        -1.8777580836        8.9003578515       -7.6329822044
 Si        -7.9896705624       -2.1728773682       -5.1665808729
 Si         5.3414369219        5.2097726940        7.1966263203
 Si         4.3368198377       -5.6371525438       -4.2225680253
 Si         7.0363488274        2.7958844676        6.6681126101
 Si        -8.8533483400        4.7946322879       -3.4107939208
 Si         9.1694169735       -2.8979521238        6.5863460875
 Si        -6.8577816305       -5.0371955243       -1.9759726903
 Si        -2.1916091260       -2.3899593495       -8.1519214834
 Si        -6.5879407764        7.0312347614       -2.6444492208
 Si         9.4124698951        4.3115943249       10.2200989538
 Si        -8.0622317597       -7.2442510645        8.3517971472
 Si        -2.7803121067        9.9943667744        8.6870045534
 Si         0.5191329557       -2.8754894227        9.8869368405
 Si         8.6765100695       -1.0245812478        4.0581254517
 Si        -5.0163391991        2.5771428397        6.8391275220
 Si        -7.0073401726       -7.7363341194       -0.3304458063
 Si         2.9984591458       -4.2236114323       -8.1557866432
 Si        -5.9372074216       10.1259523065        8.8803190444
 Si        -8.4239675031       -0.5648383515       -2.7838747140
 Si         5.4842187888        9.0516656339       -6.2899257542
 Si        -8.2460941081       -6.4024372209       -3.9433095954
 Si        -7.3732477251        8.8122629248        2.5429674851
 Si        -5.3289192779        8.6944134694        4.7276424323
 Si         0.5133444257        8.5067815426       -3.9861344575
 Si         6.2866106262       -6.9857396505       -2.5009961351
 Si         7.9125301668        6.6560822025        8.5782977694
 Si         9.1700870139       -4.5164440592       -5.1763153634
 Si         7.2917668942       -3.4593941690        8.9334630398
 Si        -2.1187208483       10.1431712136       -4.7289615354
 Si        -4.6552146321       -7.7254304902        4.9819881951
 Si        -0.5481296835       -8.1861409512       10.7125807133
 Si        -6.9415894759        3.8007151157       -8.7703356034
 Si         1.9824027897       -6.2897263788       -5.7933301731
 Si        -6.1003589020        9.0520739811       -7.7545594624
 Si         9.2291873047        6.5519994728       -5.0180259252
 Si        -7.3957461968        4.7503321152        6.5426336893
 Si        -0.7677810626       -5.6963361106        8.8977901165
 Si         9.1562390873        1.7393254429        5.2657934439
 Si         9.2341502541       -7.2511648562        0.3677630592
 Si        -5.0463745054       10.6425590703       -5.1582377417
 Si         0.3066889569        5.7255648029        8.8025321614
 Si        -2.6288358262        6.8504023862        8.1228754283
 Si         6.6813551150        4.1520032140       -8.0536108532
 Si         5.9682235479       -6.2428982531       -6.9369760291
 Si         2.7805996177        3.2195503462       -7.4965115820
 Si        -1.0846877178       -6.7545219793       -5.9009777730
 Si        -5.5095819393        3.3370312636       -6.0581090320
 Si         7.0380657873        7.7544954728       -1.8900262243
 Si         8.4143012465       -6.0927791922        3.2434679147
 Si         7.0325891196        9.2276500211       10.1915222460
 Si        -5.9086611964       -3.6316168934       -7.0778995654
 Si        -9.2669144634        0.4590783095       -6.6506131197
 Si         0.7827805429       -7.3776880669        6.7284884052
 Si         8.2743228845       -2.0165377052       -2.1140731078
 Si        -4.2090615432        4.2515775802        9.2191923941
 Si         4.4452440831        0.6705316316       -8.1704106341
 Si         0.8642508620        7.6145778984       -6.7312604849
 Si        -7.0655696183       -2.8538704385        7.2885357652
 Si        -2.4408451320        7.7176154174        5.2276619576
 Si         5.0854544179        9.7439642882        5.0723988537
 Si        -3.9289333432       -5.9715815487       -6.6225198387
 Si         7.3692432682       -8.3323425513       -5.2123810537
 Si         1.9167510711       10.5500765794        9.2728470994
 Si         6.8234141266       10.3144865324       -0.2331482902
 Si         7.1567711692        0.0323248377       -7.6960573995
 Si         0.1029580087        4.6206216123       -7.7888944258
 Si        -9.5227205400       -3.3240934428        2.3599264649
 Si        -3.5324347019       -5.0715252614        9.9711155669
 Si        -7.8344290783        2.1416755386       -4.5405503474
 Si        -7.8058499004        7.3631450621       -0.0779369374
 Si        -6.5176524169       -7.6220093061        2.5559905912
 Si         6.5392270476        8.7144892741        2.4413565542
 Si        -1.8072255075       10.7431885278        5.9813037508
 Si         8.2806555222        4.8473550477       -1.0345164048
 Si         5.5423847276       -5.4264222376        4.5817116289
 Si         9.4290173706       -8.1414393194       10.6515998685
 Si        -9.6562228947        3.0972639583        7.6975161551
 Si        -9.1161271685        4.5967401651        3.9784205497
 Si        -5.9796863710       -0.2783503540        7.9920532042
 Si         9.3195397872        8.4434112023        6.5952366895
 Si         6.5710590029       -4.1099239175       -3.3422377472
 Si         9.7604126884        8.3915948558       -2.5222337938
 Si        -8.6742357528        4.4504904878        0.8708387963
 Si         2.5800260453        7.5793612578        8.8007204838
 Se        -2.3326642851       -0.9624622018        3.2323273073
 Se        -1.4804696108       -2.8362297425       -5.9852902345
 Se        -5.0372042156       -3.6604853314       -1.7015309024
 Se        -2.0878501546       -5.0058665850        1.8529906563
 Se         1.1733274926       -4.6179851573       -1.1209721879
 Se         1.4650118292       -7.0975303444        2.7351079297
 Se        -6.2159879144       -0.6204188482        1.9092742216
 Se        -3.8676121867       -0.0981287470       -5.0318839903
 Se        -4.6721393654        1.9213644773       -0.6490311000
 Se        -1.9455068197        0.5249662081        7.7107323896
 Se         3.7387267281       -0.1394294323       -1.3373696850
 Se        -2.1236541643       -1.5824498901       -1.1230636772
 Se         1.3075582342       -1.4383394268        1.2472121171
 Se         0.7406725717       -3.2618196200        5.2876681496
 Se         5.0076950895       -4.2098124377        0.2232620014
 Se         5.7132661495       -3.2418232091        4.5298868876
 Se        -1.5368949743        5.3419688381       -2.2706050206
 Se        -4.1441093628        5.3289115328        1.8910808221
 Se        -0.6795066117        2.9447863612        4.2090007609
 Se         0.0477770609        1.4864980368       -3.3374143966
 Se        -0.5617462029        2.4359844405        0.2981908004
 Se         0.7377008025        5.9107222209        1.7394923420
 Se         1.2773674296        4.4003727107        7.1506284324
 Se         5.0460066234        1.9706429835       -4.1718233042
 Se         3.7028360980        2.8366238206        2.3224898118
 Se         1.5369001950        0.8004691920        5.3784368188
 Se         3.6289614216       -0.1330699433        5.9968493986
 Se         7.7320762182       -0.8259325197       -0.2968567243
 Se        -2.0967649299        9.0972386492        0.7138460318
 Se         2.8037851226        9.5261080351        0.3244011176
 Se         2.9868134401        4.9065562555       -1.8759832337
 Se         5.5269783915        6.7555636632        1.8694660734
 Se         6.4136285758        3.8027788367       -1.3982976790
 Cd        -6.6312784535       -2.0311906819       -0.1840811585
 Cd        -4.4349274182       -2.4475027422       -3.9440370148
 Cd        -3.0771086823       -3.4776343943        3.6305374242
 Cd        -2.7143613881        0.5933378929        5.2992314113
 Cd         3.3357370303       -2.7881692991       -1.2953574381
 Cd        -0.6519597584       -3.3619766221        0.3687753811
 Cd        -7.3469883378        1.1184569429        0.4079251064
 Cd         1.1379856464        2.9935771322        2.2290375423
 Cd        -3.5649271434       -0.3236961056        0.7905300235
 Cd        -0.7160604954        2.7096226229        7.2301656625
 Cd        -0.9941072535       -0.5110532102       -4.6076488225
 Cd         5.2536032562        0.3605101166        3.8625169077
 Cd        -0.0951461083       -4.9045517319        3.4766708089
 Cd         3.1899568219       -2.6332213332        4.9548736454
 Cd         3.7301091443        0.1217376762        1.3337553600
 Cd         2.7591327622       -5.5363907457        0.7780147605
 Cd        -1.3578212143        7.5210447961       -1.1330325032
 Cd        -2.7915722469        4.0180413853       -0.1875283791
 Cd        -3.2402942461        3.7216380876        3.8574426511
 Cd        -4.5108863126        1.0137194182       -2.9484304173
 Cd         0.5352920968        4.1711193019       -1.1852040801
 Cd        -0.1893413840        0.0689794341       -0.7400815028
 Cd         0.3284504978       -0.7672287819        7.3023936081
 Cd         2.5913563113        1.5471345594       -3.4478408924
 Cd         6.2046134269        1.0744976911       -1.5309012911
 Cd         0.4232549089        5.5256052993        4.4939246933
 Cd         5.6655732382       -1.9858287319        1.7888186601
 Cd         0.4627030961       -1.1458511401        3.6165058678
 Cd         2.2878582928        7.3728852542       -1.1505074324
 Cd         0.3679325865        9.6006104376        0.8679244974
 Cd         2.9341277149        7.2771713131        2.1535113515
 Cd        -1.9592500004        6.7806375684        2.0563301102
 Cd         4.4163208180        4.4353859787        0.2382765324
