402
 i =     7700, time =    15400.000, E =     -5882.3718604146
  O         6.7668656069        2.1599159285       10.5699408140
  O        -5.5319709284       -3.0562712064       -7.6377066576
  O         9.2783039535       -5.1765195880        6.4616738168
  O        -7.5656704892        7.8906200202        1.3058324742
  O         1.5277537341        9.0408606149       -4.2669774856
  O         8.1460085935        7.6977197452        2.9606056031
  O        -5.9523315820        8.0415112352        3.5415182738
  O         5.3540821967        6.7589572184       -5.5767831462
  O        -7.9696849880       -4.8690728377       -0.9811509584
  O         8.6923191613       -2.5856632871        5.8716118648
  O         9.4297624962       -1.7405665775       -2.6936843922
  O        -3.2624881019       -1.8429031755       -7.8027045666
  O         8.4516400796       -0.5172800830       -6.5861673518
  O        -4.8858734175       -5.5279469993        9.5496419288
  O        -7.2167030773       -0.3946233962        9.3591902264
  O        -6.5554233801        6.2974494484       -0.6244764573
  O         0.1272361944       -6.5515450219        7.5918221881
  O        -6.5514101911        1.7469098804       -4.8773365842
  O        -1.8824738160        8.5698638077        6.0044969055
  O         8.4021648780       -4.5095391098       10.6890034243
  O        -7.9539885591       -6.0951048548        5.1413812885
  O         6.8128101385       -6.8961651910        3.8736471862
  O        -8.6244047369       -0.0865342814       -7.8173183040
  O         3.7366386855       -9.2583969608        5.0086244681
  O        -7.4943066821       -2.6186785198       -3.4139941766
  O        -8.7685259010        7.8449884274        3.6496756799
  O        -3.1530880147        7.5495567254       -7.7520595348
  O        -6.9596417749        1.7167295247       10.8809127004
  O        -5.1005729701       -6.8945496162        5.9048580763
  O        -8.6095464125       -7.4188309682        7.1748873841
  O         0.6373175762        7.1871184237       -2.3419341720
  O         3.5878312986        2.9332331503       -5.6780576611
  O        -7.0744363516       -6.8696706939        2.8059101135
  O        -3.6294544451       -7.0061111981       -7.9620052868
  O         7.0988003387       -8.3415665733       -3.3978350769
  O        -6.8985225539       -3.9544379206        9.3187816979
  O         8.9988938623        6.5791625790        8.0157499962
  O        -3.9949585485        2.5865640156       -6.0599508079
  O         5.0713004764       -4.7868205123       -3.5666115384
  O        -6.9761011452        6.3325533106       -5.0982258500
  O        -5.7367510398        3.7960707653        9.9253522603
  O        -2.0399944056       10.2692327968        8.0044094985
  O         5.8790692532        3.0263197768        6.6139917712
  O         4.5127646861        3.8605879568        8.6032202145
  O         9.6807226537        2.1812563941        9.5331004239
  O        -2.3338101362       -6.1833021052        9.0812025081
  O        -7.6539086094        7.6183813460       -7.3123011765
  O         4.7104147159        0.5331964156       10.0111802650
  O         6.3822455192        8.9767548284        9.1616069920
  O        -0.0483948483        3.9702585396       10.3329877166
  O         6.0803840280       -6.8161778598        6.3914862626
  O         4.9080468812       -6.6861616626       -5.4772673671
  O        -3.3193899380        4.9884837649       -7.3397600168
  O         2.5869866189        8.3114544970        9.6373559695
  O         8.3894678915        3.5704411491       -7.5433802704
  O         0.7848367570        5.2904463325       -6.8253456493
  O        -8.5689100400       -1.8123425196       -5.8701450100
  O         9.3380690391        2.5985645390        4.6464701225
  O        -4.8733019115       -5.3034221115       -6.1800465593
  O         4.6724534751       -7.3695758070       -2.7612315067
  O        -8.3286142210        8.6980701126       -5.2431431865
  O        -1.7104409443        9.4739995929       10.6276750307
  O        -6.1571341420        7.8018431152        8.2941224285
  O         3.2055786063       -5.9148439636       10.2406323166
  O        -7.8940704826       -1.3632190522       -1.0518142938
  O        -6.2358833449       -4.7956907652        6.9273692831
  O         0.3509499015       -6.4867367016       -5.4388417083
  O        -7.1615661138       -3.9825568668       -5.7617188918
  O         6.7570230910        0.9562506865        8.1832073986
  O        -9.0538443438        0.9159602517       -5.4532293336
  O         4.2620004121       -4.1480525685       -7.4958901252
  O        -9.3964257497       -4.0272321273        1.0839370756
  O        -8.2740484636        5.2705294464        0.9633553816
  O         4.5110049604        5.0137861620        6.2313769600
  O        -6.4927247660       -9.5678962356       -1.1117729416
  O        -6.7684102955       -8.9661126882        8.2850553529
  O         4.3838801522        7.7303002851        5.7557815335
  O         6.5578890704       -2.4370564324       -7.2222251177
  O         3.3828587391        3.3073081179       -8.4048732377
  O        -1.1195204086        5.3633246876        8.3838687741
  O         7.0128040549       -5.5307463861        8.7036693463
  O        -5.4007415341        0.4503762624        7.5592726612
  O         9.8105387407        4.2183600482       -4.3381824887
  O        -5.7321497917       -4.9790048298        4.2708650551
  O        -7.3668243028       -9.3495810728        3.0191236036
  O         7.4752707129        1.1194190132        5.5945819350
  O         9.5701229780       -2.5669213060        3.2595703972
  O        -0.4733110247        7.2555655043       -7.7960219253
  O         7.4454744980       -8.0935163439        8.0980977913
  O        -7.5153239185        4.8892527496       -2.5974678508
  O         9.0295997068       -4.0422068784       -1.2036378891
  O         5.9954748054        6.6621973916       -2.7652090641
  O         9.1566529701       -5.6338456686       -6.5001880890
  O         6.0086298088       -3.3944892784        9.8550588377
  O         5.9157180355       -9.7983746021        6.6341187431
  O         8.9197519012        4.0149089584        0.8178477739
  O         8.4652619607       -3.3859455102        8.3400548638
  O        -4.7610295684       -1.3377996294        9.5888002504
  O         6.2315022681        2.9058186808       -6.2229427376
  O         6.6464890859        9.4317466564        1.6255815085
  O        -6.4151347810        9.3213334885       10.5648295784
  O         1.9055007856        7.8889945404       -6.5941831152
  O        -7.3505480780       -6.6530500829        9.2927848066
  O         7.3058251944       -1.2574555664        3.8487992327
  O         4.2564170321       -6.7463660079        4.4377139066
  O        -7.3045665222        5.5553117544        7.3695327350
  O        -8.2946769969        2.5408313476        0.1168165606
  O         4.9936353905       -7.1699396952        8.7464224413
  O         9.3192874002       -6.4278760484       -0.0360825838
  O         9.1794860422       -7.2688174031        4.9621186463
  O         6.8964424559       -6.1093719841       -2.1216362425
  O         7.0400678010       -3.2942898229       -2.5417561551
  O        -0.3349068860       -8.5573233713        5.9668216754
  O         9.8366781354        6.3836721718       -5.9597544546
  O         7.3185581114       -0.4412635822       10.4051233439
  O         0.8178566977       -9.7946625363       10.6065866997
  O        -2.4747016963       -6.4498596789       -5.8955680492
  O        -1.6124709777        9.0435131062       -6.1385236376
  O        -3.5743649383        5.1025758027        9.1441914279
  O        -7.1069576029       -5.9816892138       -3.3913105589
  O         7.5998210137        5.6560430843       -4.6826424401
  O         3.0956110203       -8.5695725119        9.9101728263
  O        -0.6966510089       -8.1603401069       -7.0156123450
  O         6.4992717798        8.9162692845       -4.9857048708
  O         5.9554285440        9.1041803469        4.0639480010
  O        -0.3349565655       -7.5824750712        9.8017904951
  O        -8.4880559492        7.9399697655        7.0030351559
  O        -0.7048275091       -2.7114901971       11.0950609175
  O        -8.2685858461       -8.2894907128        0.6131808296
  O        -5.5369538526        4.1536723933       -4.6033198485
  O         8.2912843262        3.0150365332        7.4741756604
  O        -5.2335187033        6.1749092369       -3.0074398559
  O        -0.0880047864       -4.8538251060        9.7737155529
  O         8.5225068222       -8.9353535671        0.0075800599
  O         6.4694695324        8.4278215109       -0.6912691337
  O        -6.1519470553        9.7879216636       -3.8257919914
  O         8.8189070650        7.4144161925        5.4747912425
  O        -3.7396431844        7.5763731487        4.6331329070
  O        -4.1447254765        1.9361607002        5.5988968780
  O        -5.4356136865        8.9871829122       -6.3742355541
  O         8.9744503929       -9.1502465072       -5.1323540719
  O         7.5908473744        6.9893099838       10.1103404933
  O         2.0999186987       -8.5360994714       -6.0008933222
  O        -7.2015508229        7.8418902479       -2.6864583202
  O        -5.8986538402       -0.5924331509       -7.6078742618
  O         2.1734212932       -7.3407655042        6.0372801360
  O         6.5903184095       -5.9312769386       -7.3669495058
  O        -8.4671325520        2.3190758498       -3.1136539571
  O        -4.7905876769       -8.2418030979        3.5393335529
  O         8.8474334873       -5.1674553581        3.2292839073
  O         4.0470276962        9.1121710481       -5.7106359795
  O        -8.0040574456       -7.9754938735       -5.3087525672
  O         3.1640243619        0.7743445561       -7.2871192143
  O         6.5631638830        5.3834811045        8.0674348732
  O         5.6962319241       -0.0051377605       -7.0348679573
  O         2.4200880143       -5.9229768242       -6.7330980882
  O        10.3752219473        9.2785691986       -2.5763026234
  O        -8.5296651303        3.4067279028        2.6290507404
  O         4.8564795470       -7.7537816270       11.4650577519
  O        -6.2079188206        3.5879605998       -6.9746701392
  O         5.8648156401        8.3468568095       -7.5748493479
  O        -9.1847506949       -8.6394987029        9.4504537879
  O         4.2033038043       -1.7162569288       11.0318441697
  O        -7.9626169702       -4.3712565081        3.1331473490
  O        -3.5745188538        9.4267214032       -4.4182098300
  O         3.7448132727        5.9296906834       10.1625237937
  O        -6.1959695261       -2.0745604209        7.5311373000
  O        -5.0659745929        9.6053938197        5.7536785661
  O         7.5576877278        5.8822822053       -0.5970625165
  O        -6.1764202251        3.0004130850        6.6451528227
  O         0.1082797410        6.9971999258       -5.0016301359
  O         5.8224673461        4.5297654937       -8.3430628284
  O         5.3849849650        4.4142397074       -4.1649244514
  O         9.3513619023        4.1645888386       -1.7595134669
  O        -2.8201994046        6.2272679479        6.7636261934
  O        -1.4453790162       -8.3201206112       -4.4247976944
  O         1.0148361798       -2.4166861820        8.9497528456
  O         1.7904763299       -3.7937443493       11.2054124171
  O         8.1700668885        9.5357020905       10.9487334416
  O        -1.3147292723        3.3722872860       -6.8146189033
  O        -8.9134919430       -9.0071951588       -7.4137156227
  O        -2.8484793599       -8.3318804116        5.3892134952
  O        -7.7464668497       -0.0663807034       -3.3164829352
  O         9.5262783540        5.3645417191        3.8996763255
  O        -4.2822788424        9.5465852692        9.1110392979
  O        -3.3661633956        2.8664254278       -8.6480805910
  O        -1.3360788727        6.2604559369        4.5486172681
  O         1.2849244325        2.6831118652       -7.1246271142
  O         8.4993574584        9.1368453970        7.4420722069
  O        -2.8196465276       -4.4854133536       11.1824427247
  O         1.1122830467        6.2039466803        9.3883250000
  O        -6.8056537816       -5.4172744057       -7.9616824926
  O        -8.4805380145       -3.2379509105        7.2329960362
  O        -6.1152478352        7.1761488745        5.8374617004
  O        -3.6464011157       -4.5029605004        5.9268219822
  O        -3.9784868446        2.7012317383        8.1330751385
  O        -8.3892898453        3.8746186007       10.9188625017
  O         7.5095049619       -5.0292561360       -4.4400206932
  O         8.7063897204       -7.2163244688       10.9806887228
  O         8.6745986358        4.6049750660        9.5794926462
  O        -5.7433746087       -8.4896332466        1.1768177810
  O        -8.5629816813        3.4321660009        7.6624176522
  O         6.1918135332       -8.4149399603       -0.7388688246
  O         6.8361419609       -8.3077201284       -6.2211259058
  O         8.9843167232       -7.6150432314        2.2552607629
  O         2.3512275033        6.2313185599        5.0585491085
  O        -9.7021394530       -6.4727567599       -4.0400668294
  O        -6.4085339253       -6.8623991754       -0.7284911376
  O         9.8716437933        6.6308242422       -3.4144233634
  O        -9.3625389142        1.1309669325        6.7607173834
  O         2.6964498558       -6.4603792236       -4.2570739392
  O        -9.4664391263       -3.9160855436       -4.6087940803
  O         9.5764008063       -0.3189766664        4.6530346167
  O        -5.3502652491        6.8388174285       -7.9531287581
  O        -2.3670575460        7.6314630271        8.8874250875
  O        10.3670916121        7.2352118878       -0.7451452810
  O         1.3138281381       -9.0187930747        8.0066842540
  O        -7.8277037867       -8.1133494723       -2.6807100363
  O        -7.8883022854        4.1979301852        5.1515288350
  O        -1.1531868608        8.6665295723       -3.5256350365
  O        -4.8414791231       -7.9344789500       -5.6085799604
  O        -4.2560456918        6.4265084837       -5.4538042386
  O         8.1984341051        7.9275418685       -2.4141470135
  O         2.9762538467        6.5984397588        7.6730256585
 Si         3.1319716485       -7.8136939141        4.7178761943
 Si        -6.5001193974       -5.4337537569        9.8522970709
 Si        -4.0712672813        6.3421371145       -7.1090036484
 Si         6.3289535311        0.7776734493        9.7424497468
 Si        -9.4741829852       -4.9464248604       -0.2285075615
 Si        -9.2189129391       -6.4734077334        5.9818953483
 Si         9.2537527645        7.0143698804        3.9576597776
 Si        -8.1453390883        7.1942250815       -5.8998530208
 Si         4.0134184075       -7.3404754460       10.0776304909
 Si        -2.9696758773        3.3871629487       -7.0970002842
 Si        -8.9585370166       -9.2544428837       -5.7858737746
 Si         6.0619223297        5.9631430333       -4.2466332811
 Si         3.5086614403        6.3454709715        6.1555585900
 Si        -7.1552879358        0.1423482555       10.8932511263
 Si         8.2330291875       -5.8299509159       -7.7370688523
 Si         6.3848448737       -6.8522889431        7.9776671794
 Si        -7.2639573197        9.5257709577       -2.6195669986
 Si        -5.1018757116       -5.2165344862        5.7773198746
 Si         4.3601446308        4.4130022170       10.1975554569
 Si        -4.8884772732       -1.7509192428       11.2030552037
 Si        -7.0791634630        7.1174749500        7.1363788097
 Si         2.4204722278        9.2019957750       -5.6461223755
 Si        -5.4801301122        5.7951481517       -4.5745593094
 Si         5.2471800811       -3.0347577225       -8.1472850241
 Si         6.9791313913       -9.6688730603        7.7719525459
 Si        -7.1525598105       -5.5788733784        3.7938132352
 Si         5.1659601431        2.9992009668       -4.9818986176
 Si        -1.7313917571        8.2101026257       -7.4903748365
 Si        -8.1355260933       -3.0236049553       -4.8643672425
 Si         5.4712117256        4.3946837784        7.3885259696
 Si         4.3358375011       -6.3119917946       -3.9813972418
 Si         7.0599356606        2.0238376795        6.9694720508
 Si        -8.7920008263        3.9049123844       -2.8993430552
 Si         9.3077177912       -3.5929303608        6.9625767410
 Si        -6.7504634076       -5.7220272518       -1.7753745680
 Si        -2.1845447533       -3.1030764889       -7.6474850438
 Si        -6.6542728555        6.3161771957       -2.2430205064
 Si         9.4098658316        3.4707017652       10.5444365422
 Si        -8.0626845572       -7.9038700382        8.6028638351
 Si        -2.6925274239        9.2191762383        9.0552799605
 Si         0.5699348756       -3.3258054061       10.1819242624
 Si         8.7396375242       -1.7598509970        4.4145498559
 Si        -4.9317638106        1.9401364245        6.9705173927
 Si        -6.7671985743       -8.3189772747       -0.0873680267
 Si         2.9184632646       -4.9149302921       -7.9460700848
 Si        -5.9255502285        9.2634115979        9.0559647873
 Si        -8.2913710770       -1.3861180734       -2.5579617536
 Si         5.4327430045        8.2810817460       -6.0398674991
 Si        -8.2102429817       -7.1884227433       -3.8599943178
 Si        -7.4149970551        8.4195048457        2.8676344064
 Si        -5.2219218687        8.1700252994        4.9832312079
 Si         0.3385721632        7.9078957487       -3.7308626722
 Si         6.2527851814       -7.6321564745       -2.1497611032
 Si         7.9337414704        5.8530636707        8.9183720441
 Si         9.0469727431       -5.2551079440       -4.9079652778
 Si         7.4476482805       -4.1107832616        9.3966170135
 Si        -1.9884121307        9.5044065193       -4.6033065602
 Si        -4.5401473949       -8.2621514182        5.1891568959
 Si        -0.4018148284       -8.7215680132       10.9059043074
 Si        -6.8290590441        3.2805500295       -8.4019985799
 Si         1.9567623031       -6.9479781703       -5.6059703882
 Si        -6.2026356450        8.2273985307       -7.6504334586
 Si         9.2614176574        5.7000698763       -4.6041368440
 Si        -7.4310879927        4.0271680190        6.6761745871
 Si        -0.6403475813       -6.1694021295        8.9905567339
 Si         9.1388689416        1.1148779966        5.3308870438
 Si         9.5540603244       -7.8554191916        0.6660964726
 Si        -5.0644896302        9.9676992096       -4.9841471388
 Si         0.2587327871        4.8691960915        8.9956630366
 Si        -2.5134658587        6.0728888895        8.3353445982
 Si         6.7572193527        3.3034790499       -7.6949550615
 Si         5.7420121472       -7.1632743163       -6.7274119777
 Si         2.9217072952        2.4607103743       -7.1044346184
 Si        -1.0492366980       -7.2703769843       -5.6750838679
 Si        -5.6311753411        2.8998794888       -5.5967010622
 Si         7.0666184864        7.1520327243       -1.5679306505
 Si         8.4585771514       -6.7347432830        3.5470464790
 Si         7.0141659905        8.4673545228       10.5790747562
 Si        -6.1175984744       -4.4507583144       -6.8713405201
 Si        -9.3525983064       -0.4815692685       -6.3981376975
 Si         0.8652886840       -7.8419954582        6.9162298546
 Si         8.4127274316       -2.6292043087       -1.7688639075
 Si        -4.2008057627        3.5397113142        9.4953381377
 Si         4.3287407810       -0.1578554429       -7.9817876687
 Si         0.5826656940        6.8915863210       -6.5293253187
 Si        -6.9567980901       -3.5300586770        7.7315183676
 Si        -2.4460705752        7.1273018854        5.5000450776
 Si         4.9895444135        9.1050563457        5.3945627090
 Si        -4.0321549340       -6.7955036560       -6.3807566966
 Si         7.3549130513       -9.0528686742       -4.8484306767
 Si         1.9222807487        9.7825424618        9.4198132583
 Si         7.0193699756        9.7962883472        0.0358808667
 Si         7.0462949435       -0.8974169195       -7.4288690329
 Si         0.2026694096        3.8592745370       -7.3814200877
 Si        -9.5164475952       -4.0773741323        2.6934255547
 Si        -3.4768872813       -5.8218127782       10.1872082395
 Si        -7.9870714178        1.2425753259       -4.2324803859
 Si        -7.8926317862        6.6942253539        0.2425559984
 Si        -6.1556159605       -8.2417130837        2.6928635679
 Si         6.6238561111        8.2801474492        2.7738371736
 Si        -1.8041524996       10.1628683579        6.3528706921
 Si         8.1765865038        4.2989182827       -0.5644290915
 Si         5.7401854643       -6.1980318254        4.9270172521
 Si         9.3344593002       -8.6571743068       10.8017466572
 Si        -9.6911120081        2.2893353928        7.8707644193
 Si        -9.0802815805        3.8921736921        4.0641694803
 Si        -5.8655423698       -0.8163303464        8.4990011126
 Si         9.2964604171        7.7948834263        7.0123456953
 Si         6.6456967910       -4.8258414250       -3.1062063530
 Si         9.8403213663        7.7388880410       -2.2909123009
 Si        -8.8563417296        3.6819257606        1.0657750234
 Si         2.6488757880        6.7078002902        9.2201788448
 Se        -2.1737613141       -1.2309564435        3.4308945616
 Se        -1.6900044657       -3.4545723990       -5.1991560459
 Se        -4.7915851111       -4.3740620538       -1.4909429228
 Se        -2.2631560169       -5.3693869961        2.3486709377
 Se         1.2421737637       -5.0557807725       -0.3660053749
 Se         1.6308333011       -7.4950896551        2.8693249292
 Se        -6.2953601310       -1.2247895639        1.9241600905
 Se        -3.8810758509       -0.4498097385       -4.6498359276
 Se        -4.9117392524        1.3328908188       -0.1380274605
 Se        -2.0126715229        0.0944005198        8.2362216146
 Se         3.6551102959       -0.5992537288       -0.8159288062
 Se        -2.1412150852       -1.9551516973       -0.9320496946
 Se         1.2004189065       -1.7930238830        1.5913143021
 Se         0.6312526158       -3.7871410775        5.7634864856
 Se         5.2034686021       -4.3034943021        0.7723387377
 Se         5.7155833186       -4.0102099107        5.0992306330
 Se        -2.1070918239        4.6758379804       -2.0467387781
 Se        -4.2057062815        4.8506801095        2.2807345233
 Se        -0.7390297369        2.5472504977        4.6681249944
 Se         0.3603907493        0.8072888082       -2.9430671329
 Se        -0.9334569279        1.8998776438        0.6834550097
 Se         0.4803216870        5.3899288872        2.1631651534
 Se         1.3422570731        3.6436962829        7.5130622867
 Se         5.2976061247        0.9127887804       -3.9956775355
 Se         3.4050321755        2.8058348229        2.7785891908
 Se         1.6349723353        0.1806131030        5.9531389153
 Se         3.7686846183       -0.7630391582        6.3614080414
 Se         7.9492854439       -1.2618677187        0.1388722946
 Se        -2.1569644349        8.6699993484        0.7934690373
 Se         2.8522556986        8.4163901968        0.8083325065
 Se         2.6202149854        4.2027604583       -1.6518770391
 Se         5.5150241561        6.2138269512        2.4649720932
 Se         6.2528432750        3.1018086579       -1.0668580355
 Cd        -6.7298399625       -2.9056718499       -0.0201753380
 Cd        -3.8769444614       -3.2151888631       -3.6957141324
 Cd        -3.2318793049       -3.5715551937        4.0053024297
 Cd        -2.5926477745        0.2332480437        5.5539921336
 Cd         3.1267328192       -3.2552956233       -0.4797972634
 Cd        -0.7559628041       -3.7051569161        0.7199801969
 Cd        -7.6477896527        0.5501103016        0.4838444661
 Cd         0.9130111882        2.8172493698        2.3120196050
 Cd        -3.7333153203       -0.8391316367        0.9609380073
 Cd        -0.7395151245        2.1680746379        7.4545249608
 Cd        -1.1998588263       -0.8306333861       -4.3066447355
 Cd         5.3035441131       -0.3812304878        4.2159531514
 Cd         0.0922268521       -5.4309555070        3.5425267267
 Cd         3.3628538252       -3.4023556069        6.0419136658
 Cd         3.8822484696        0.2132453153        1.8096414936
 Cd         3.0981625023       -5.4804647010        1.6932170715
 Cd        -1.7241190475        6.9231071493       -1.0083293816
 Cd        -3.3002820068        3.5579383023        0.1000720505
 Cd        -3.0729435052        3.3923657005        4.0582650208
 Cd        -4.1310000307        0.4150372202       -2.3199586954
 Cd         0.1314083513        3.5412211363       -0.9805476527
 Cd        -0.1608440255       -0.4393812908       -0.4779687622
 Cd         0.0707076616       -1.1936108312        7.5167347571
 Cd         2.9130062302        0.7895319755       -3.1145789534
 Cd         6.3068983734        0.2871874996       -1.0338123727
 Cd         0.4480455694        5.0674186213        5.0077762717
 Cd         5.8576279281       -2.2546365629        1.8923233314
 Cd         0.5492185224       -1.5621965615        4.1214278388
 Cd         2.2845633136        6.6098853328       -0.8062985786
 Cd         0.4073775487        9.0539601344        0.8804860226
 Cd         3.0054089160        6.4602610688        2.8514200628
 Cd        -1.9988085997        6.3800629709        2.3075349256
 Cd         4.0725612060        3.5760289149        0.4454468864
