402
 i =     5600, time =    11200.000, E =     -5882.4229315715
  O         6.5211339998        1.3345410538       10.6898788186
  O        -5.5214834519       -4.1536908865       -7.5990422813
  O         9.2421247052       -6.1784658755        6.7486309299
  O        -7.8651057607        6.9829616818        1.6005144870
  O         1.6695090653        7.9117724966       -3.9827030646
  O         7.9512685502        6.5174825184        3.1554065177
  O        -6.0925815945        7.0500939468        3.5412358134
  O         5.5081217374        5.8856103355       -5.1131739080
  O        -8.0458789761       -5.8929905215       -0.6462671081
  O         8.5135967222       -3.7107574956        5.8381100114
  O         9.3097215460       -2.6773263087       -2.4608124029
  O        -3.2955508936       -2.7116905890       -7.7632793747
  O         8.3051095157       -1.2847263641       -6.2832206720
  O        -5.0973414994       -6.2857499395        9.8406388800
  O        -7.3201288682       -1.4242496035        9.4178290221
  O        -6.5471198185        5.4938810231       -0.2952850017
  O        -0.2219674315       -7.6341002832        7.7863056275
  O        -6.4812668568        0.7990975901       -4.5033708484
  O        -1.8477802345        7.4260435963        6.2674050277
  O         8.3793867220       -5.4009085106       10.7978121221
  O        -8.3889737363       -7.0148775172        5.1440486636
  O         6.6256921565       -7.5251440649        3.9008334948
  O        -8.7065984822       -1.2134798177       -7.5858911109
  O         3.7272275987      -10.1809845716        5.2575268371
  O        -7.6246172827       -3.5503884462       -3.3005427463
  O        -8.8727999396        6.6606093948        4.0170362741
  O        -2.5563087539        5.8149051975       -7.2457752417
  O        -7.1905876744        0.6840918145       11.0751723577
  O        -5.2441833616       -8.0754577899        6.3102437180
  O        -8.9131864409       -8.4878818846        7.4007893151
  O         0.6528582901        6.1611711999       -2.1394154681
  O         3.3272878822        2.0825584834       -5.3998481117
  O        -7.1722401264       -7.7716698644        2.9064921995
  O        -3.9433655006       -7.7124000383       -7.7297519043
  O         7.0144418430       -9.1523030277       -3.1280252743
  O        -7.2689770952       -4.8562314188        9.4071665474
  O         8.7266488244        5.6329988410        8.1658618688
  O        -4.1689898450        1.3687377911       -5.9492900912
  O         4.8613567682       -5.9093734417       -3.4270906166
  O        -6.8130428732        5.3893113581       -4.8407284218
  O        -5.9857677465        2.7452381825       10.1690728985
  O        -2.2176372221        9.0734982337        8.2524266589
  O         5.5280251243        2.1142808559        6.9174566839
  O         4.2570262593        2.9847255219        8.9829031116
  O         9.3486919087        1.2571653123        9.7320747359
  O        -2.6412941030       -6.9475025017        9.2034957293
  O        -7.5753435443        6.5267812103       -7.1308843765
  O         4.6603867829       -0.4170806495       10.2314004569
  O         6.3511146616        8.2729384254        9.3712187642
  O        -0.3510595975        2.9791038191       10.4663543654
  O         6.0146671685       -7.4564927680        6.5902985437
  O         4.7850987580       -7.7438602427       -5.4540417616
  O        -4.0547941719        3.7160111569       -7.0074668258
  O         2.4750412439        7.4945546663        9.8648571383
  O         8.2134917791        2.5936437472       -7.3533244021
  O         0.6738571573        4.2554023401       -6.8826622210
  O        -8.9644074758       -2.7345856485       -5.5769125000
  O         9.1795815127        1.4839181768        4.8165844482
  O        -5.0538609599       -6.1711474141       -5.7929080681
  O         4.5728643533       -8.4126195461       -2.7415281290
  O        -8.3089599824        7.6538984502       -4.9423179598
  O        -2.0585223531        8.4399547221       10.8653886704
  O        -6.4135594587        6.8706083319        8.6593518734
  O         3.4287640201       -6.7983479754       10.5012351200
  O        -7.9323349745       -2.5291354672       -0.8361823606
  O        -6.3334118402       -5.6501630523        6.9955178038
  O         0.2942383364       -7.5233892571       -5.2060110462
  O        -7.2053554411       -4.7102917354       -5.6653797844
  O         6.5822261689       -0.0033395383        8.3257128958
  O        -8.9640106723        0.0108331682       -5.1560440035
  O         4.1651899411       -4.9642652811       -7.1264051489
  O        -9.6420151167       -5.2672149174        1.2908539886
  O        -8.3837457208        4.3397392660        1.2792181107
  O         4.3596008565        4.3380537578        6.5506325702
  O        -6.7951283464      -10.5237696700       -0.7612451119
  O        -6.8347259113       -9.8501731357        8.5622922708
  O         4.4524722880        6.8299918428        6.1603773830
  O         6.4595112469       -3.2068440522       -6.9682928407
  O         3.1518084718        2.6279656206       -8.0297052023
  O        -1.2745320091        4.3880608241        8.4784605067
  O         6.6340681453       -6.5333619636        9.0985802071
  O        -5.5929098588       -0.6201897065        7.5712189032
  O         9.8877368622        3.3889145776       -4.1526566095
  O        -5.8374436349       -6.1087533954        4.5285398228
  O        -7.7387583889      -10.3476774531        3.3577430669
  O         7.1939639836        0.1808736420        5.8435813791
  O         9.4349180477       -3.5509764230        3.3104535005
  O        -0.2483966125        6.6646861294       -7.3160526233
  O         7.3110276484       -8.9806745155        8.3152853169
  O        -7.5916759330        4.0714330676       -2.3695433689
  O         8.9464873573       -5.0027644304       -1.1338238451
  O         6.0710012427        5.5715211400       -2.5044531093
  O         9.1646907681       -6.5736756493       -6.2405890089
  O         5.9418847016       -4.2084236344       10.1897709190
  O         5.8722169413      -10.4461425278        6.7761607830
  O         8.8374205306        3.0169868501        1.0876244209
  O         8.0984183217       -4.3525538087        8.3921193915
  O        -4.9093451996       -2.5484837702        9.5329963380
  O         5.9078577926        2.1038966486       -6.1498470552
  O         6.4255124826        8.4751604020        1.8232127763
  O        -6.4627707624        8.2663132793       10.8829313596
  O         2.1190451755        6.7422316515       -6.2948787514
  O        -7.5324531789       -7.4719546587        9.3613606432
  O         7.1165216599       -2.4197613093        3.8510846963
  O         4.1221670805       -7.6612564929        4.8070773000
  O        -7.2541572386        4.5650330114        7.5744155234
  O        -8.2371853661        1.6228427010        0.6104381424
  O         4.7230751298       -8.2287411996        8.7241834036
  O         9.1445995778       -7.4635218382        0.0195713154
  O         8.7776779168       -8.2510352542        5.1258032021
  O         6.5658515691       -6.9213766265       -1.7682271437
  O         6.8878596798       -4.1514208105       -2.3959407142
  O        -0.4721312153       -9.6451948792        6.2438826785
  O        10.0025823736        5.2990484961       -5.7709570390
  O         7.2373777914       -1.1371334461       10.7851676495
  O         0.4780696973      -10.5274397440       10.9121081201
  O        -2.5486379266       -7.2664989851       -5.5086310670
  O        -2.1799605085        8.0395113846       -5.9350062375
  O        -3.7996243575        3.9809618834        9.1693525593
  O        -7.0821174920       -6.9030511406       -3.1243742932
  O         7.6793498611        4.6916764534       -4.5356038691
  O         2.8308128547       -9.4038460657       10.2591063620
  O        -1.0354515868       -9.1138085021       -6.7540934870
  O         6.6681303489        8.0182288902       -4.6861219350
  O         5.9986044416        8.0214758844        4.3617649754
  O        -0.7816463078       -8.4233586386       10.2133720353
  O        -8.6037710127        6.9421484639        7.2206672790
  O        -0.8461281014       -3.6575925453       10.9599189840
  O        -8.5396665186       -9.2012844141        0.7884630454
  O        -5.3483252934        3.2430061388       -4.3557615555
  O         7.9931812532        2.0738525292        7.6145436866
  O        -5.2905147019        5.1503513644       -2.6408698063
  O        -0.2334838011       -5.8459574434        9.7901357890
  O         8.3697626257      -10.0113146309        0.3227134035
  O         6.2753178353        7.4168583946       -0.3340576654
  O        -6.2436291260        8.9406637116       -3.5532775315
  O         8.5469009563        6.0855658558        5.7539658859
  O        -3.9534278068        6.4073372894        4.7237498218
  O        -4.4044139875        0.8555317662        5.7743607884
  O        -5.5645874940        8.1368008923       -5.9661382535
  O         8.9861163738      -10.1172385812       -4.6686294401
  O         7.3736185207        6.0056250134       10.4346288603
  O         1.9749603700       -9.6433232174       -5.7283344879
  O        -7.1996550124        6.8926103606       -2.4419208556
  O        -5.9927333707       -1.6286479663       -7.6970013524
  O         1.9549470673       -8.5250430877        6.4477181878
  O         6.6747436564       -6.7772757013       -7.1043139473
  O        -8.4260082176        1.5272684531       -2.9089615508
  O        -5.2428210314       -9.2826175485        3.9923101362
  O         8.7570861230       -6.1122388444        3.6022540987
  O         4.0618789530        8.0548639425       -5.5254223536
  O        -8.0607367428       -8.9843815190       -4.8459230586
  O         3.0016996084        0.0112465012       -7.1023080918
  O         6.3539136563        4.4520886192        8.3939024485
  O         5.5284896711       -0.8150658691       -6.6651955679
  O         2.2272863718       -7.0776770895       -6.7836762963
  O        10.3344967879        8.2738382353       -2.2400995602
  O        -8.8364591550        2.4500241909        2.9162058162
  O         4.9647009477       -8.7242288381       11.5231056491
  O        -6.5730186483        2.4491091955       -6.5290176738
  O         6.0468425773        7.4804150967       -7.3402029458
  O        -9.0627988680       -9.7248748976        9.8046049309
  O         4.0855495979       -2.5406151040       11.5169552660
  O        -8.0818927494       -5.3467740049        3.3001591665
  O        -3.6838058516        8.5452947264       -4.0105645927
  O         3.5054176089        5.1249990476       10.4523381366
  O        -6.4003503044       -3.0990915536        7.4526816123
  O        -5.3655164749        8.5866872080        5.8867319476
  O         7.5212003931        4.9477576606       -0.3443977002
  O        -6.4507700444        2.0427217585        6.9991930092
  O         0.0555380501        5.8624405152       -4.7409921018
  O         5.7192860943        3.7400339762       -8.2625784564
  O         5.2879069201        3.5761633965       -4.0765012420
  O         9.4064619693        3.2892726728       -1.4741429347
  O        -3.3048736125        5.2497013218        7.0353663502
  O        -1.4830560294       -9.2986957390       -4.1968452659
  O         1.0979237593       -3.6866752576        8.9568147042
  O         1.6674356085       -4.8428091924       11.3483425457
  O         8.2675476432        8.5428163339       11.0856099151
  O        -1.6382079388        2.4044299442       -6.7286446479
  O        -9.1199629014      -10.0278905176       -6.9717213894
  O        -3.0548517812       -9.5320741970        5.7698526664
  O        -7.9881309115       -0.9531224484       -2.9975909682
  O         9.0320767453        4.2486857514        4.1489566213
  O        -4.4411660235        8.5549975266        9.3227190962
  O        -3.4946608503        1.7664500980       -8.6144791997
  O        -1.6993620780        5.1622470731        4.9369761050
  O         1.0396493871        1.8062102634       -6.8363121002
  O         8.3593086719        8.1614146828        7.4062139402
  O        -2.8640696705       -5.2953670028       11.2391865431
  O         0.9830265022        5.3122399805        9.7179379544
  O        -6.9360102918       -6.2897953786       -7.7280989989
  O        -8.7671321001       -4.0950046354        7.3838632309
  O        -6.4060591285        6.3546653784        5.9900775483
  O        -3.6548887145       -5.8172039936        6.1138022623
  O        -4.3748871946        1.5186002203        8.4279430396
  O        -8.5434450610        2.9499171133       11.1765845397
  O         7.4429208654       -6.1233933515       -4.1705311447
  O         8.6804733134       -8.1571195942       11.1708343303
  O         8.5396601013        3.7039426948        9.8006690706
  O        -6.1035709676       -9.6478049594        1.5251323992
  O        -8.7923997513        2.5818734263        7.8651217472
  O         6.0891609873       -9.3339801415       -0.5191173078
  O         7.0472644749       -9.0859377996       -5.8839644339
  O         8.6760703922       -8.5069371005        2.3863064492
  O         2.2677407872        5.5150933660        5.2994330677
  O        -9.7278603203       -7.3500317769       -3.7225156902
  O        -6.4769099772       -7.9203774129       -0.4456677693
  O         9.6516859405        5.8287180684       -3.2532035547
  O        -9.8368496112        0.1529597317        7.1006541488
  O         2.6501097433       -7.4292340016       -4.1605957952
  O        -9.6185816591       -4.8651760803       -4.3445825784
  O         9.2744542688       -1.3076664952        4.8500050058
  O        -5.0222128144        6.1759515815       -7.6429781981
  O        -2.7194313440        6.4870013850        9.2052532221
  O        10.1339009815        6.0626148720       -0.5126777530
  O         0.9582691110      -10.0100962916        8.4409390951
  O        -7.9329111849       -9.0076630046       -2.3043790888
  O        -8.2362900637        3.3472081938        5.3941487591
  O        -1.1288148919        7.5282275404       -3.4040282693
  O        -4.8843456832       -8.7804230249       -5.3784677693
  O        -4.2406278948        5.5340925515       -5.1480992627
  O         8.1041715143        7.2212699396       -1.8770816050
  O         2.7019625998        5.9740674941        7.8744839498
 Si         2.9642506654       -8.7728568172        5.1002964587
 Si        -6.7584879924       -6.2880809579       10.0665888555
 Si        -4.0254503109        5.3219943506       -6.6970491199
 Si         6.2495176754       -0.0831466067        9.9550330818
 Si        -9.5966372246       -6.0018349537       -0.1963441995
 Si        -9.5183085821       -7.5867192060        6.1628147716
 Si         9.0527949196        5.8772194545        4.2173894065
 Si        -8.0116478128        6.1839052934       -5.6420533743
 Si         4.0315072270       -8.2806371368       10.2484975095
 Si        -3.2107809079        2.2490305368       -6.9875420101
 Si        -8.9696707741      -10.2312917265       -5.3029940520
 Si         6.0989361405        4.8955639073       -4.0232137121
 Si         3.3988502465        5.6347683689        6.4642079190
 Si        -7.3012537134       -0.9232751469       11.0033736624
 Si         8.2406213892       -6.7426402978       -7.5606964780
 Si         6.1903278055       -7.8095083901        8.1676669252
 Si        -7.3835830898        8.6644839106       -2.3488362754
 Si        -5.1553510844       -6.3893439916        6.0357148507
 Si         4.2301561974        3.6062491191       10.4970784006
 Si        -4.9219623532       -2.7909559267       11.1345104598
 Si        -7.1588924798        6.1652458454        7.3986048473
 Si         2.4498294927        8.1653159463       -5.4199793728
 Si        -5.3972105666        4.8618141321       -4.2282215894
 Si         5.1909372156       -3.8168911061       -7.7959605743
 Si         6.9989886742      -10.5103210689        7.9381921756
 Si        -7.3080717661       -6.5819487220        4.0052638933
 Si         4.9436328178        2.0898400798       -4.8725846284
 Si        -1.7610394255        7.1724079823       -7.2474889875
 Si        -8.3153555565       -3.9788578026       -4.7223182291
 Si         5.1537461224        3.5266454257        7.7307258163
 Si         4.3102410846       -7.3589554186       -3.9542250344
 Si         6.7800367088        1.1170650167        7.1575109917
 Si        -8.8481760972        3.0865649957       -2.7152483123
 Si         9.0756294760       -4.5962787097        7.0705763020
 Si        -6.8074889095       -6.6793668941       -1.4762848312
 Si        -2.1451255647       -3.9403833096       -7.5200381883
 Si        -6.7196960727        5.4365431223       -1.9263762034
 Si         9.2651455833        2.6444113559       10.7317095221
 Si        -8.1228236401       -8.8388024436        8.8535092089
 Si        -2.9085723118        8.0746398733        9.2745290690
 Si         0.5116397690       -4.4320271791       10.2169055786
 Si         8.5479103521       -2.7570612867        4.5120675533
 Si        -5.2691773959        1.0112418254        7.1282623582
 Si        -7.0102046567       -9.3383521705        0.2280521645
 Si         2.8418307936       -5.8731989271       -7.6449044543
 Si        -6.0924354679        8.3496911759        9.3126194525
 Si        -8.4182342822       -2.3812994965       -2.3469536488
 Si         5.5210535095        7.3678708125       -5.7546606329
 Si        -8.2194855251       -7.9856775244       -3.5118382431
 Si        -7.7361812846        7.3989875247        3.1449486934
 Si        -5.3848898748        7.1072405146        5.0108207453
 Si         0.4172875777        6.9234390183       -3.5127850700
 Si         6.0260812972       -8.4901479609       -1.9809777825
 Si         7.6594400410        4.9042574145        9.1970551913
 Si         8.9762663240       -6.2376436014       -4.5807245786
 Si         7.2724767153       -5.1102878307        9.5818063104
 Si        -2.1240475759        8.5054420126       -4.3676192376
 Si        -4.7039622764       -9.3601726269        5.5412044973
 Si        -0.8295250685       -9.6751053440       11.1686390350
 Si        -7.1052827101        2.2555357867       -8.0614227850
 Si         1.8364842785       -7.9833364313       -5.5108546835
 Si        -6.1161713747        7.2821333697       -7.2504493139
 Si         9.2038846962        4.8124658587       -4.4661152024
 Si        -7.6563930717        3.1553791661        6.9086489135
 Si        -1.0456716815       -7.1494721716        9.1639927280
 Si         8.8421426794        0.0316008545        5.5406440212
 Si         9.2821691038       -8.8128727511        0.8761853223
 Si        -5.0955819318        9.0632794375       -4.6789504746
 Si         0.1790965197        3.9279728096        9.2395393194
 Si        -2.7219965262        4.9733084946        8.4935089526
 Si         6.5998087620        2.4983159374       -7.5243788158
 Si         5.9092771172       -8.1571643734       -6.6114430577
 Si         2.6720837088        1.6183444332       -6.8205244114
 Si        -1.1829876165       -8.2164835049       -5.3751308816
 Si        -5.6604124989        1.9043619755       -5.3062670918
 Si         6.9628216859        6.2177750012       -1.2530030523
 Si         8.2284882641       -7.6441506652        3.7166087104
 Si         7.0107019931        7.5573725843       10.7602080665
 Si        -6.1830291860       -5.3307469106       -6.6660753296
 Si        -9.4232210966       -1.2661213295       -6.1732216590
 Si         0.6471221999       -8.9770284792        7.2706605611
 Si         8.2636871599       -3.5807198879       -1.5848639174
 Si        -4.4694867574        2.5426585987        9.6490074892
 Si         4.2149802392       -0.9689679546       -7.6377601694
 Si         0.7046874150        5.8241754174       -6.2895443163
 Si        -7.2008091312       -4.4800359306        7.7269757833
 Si        -2.7016263802        6.0639262011        5.7778999262
 Si         4.9830263157        8.2394805168        5.6620160653
 Si        -4.1034369846       -7.4962146150       -6.0833619646
 Si         7.4376162898       -9.9247380258       -4.4833661581
 Si         1.7213496247        8.9287753187        9.8502949216
 Si         6.8658352331        8.8261547469        0.2773213648
 Si         6.9755370302       -1.6137469939       -7.0704993263
 Si        -0.1060128126        2.8712944111       -7.2920795961
 Si        -9.6537145275       -5.0487097025        2.9340025171
 Si        -3.6642588330       -6.5766927188       10.5023508648
 Si        -7.9929813229        0.3691174697       -3.8995753269
 Si        -7.9960362040        5.7135273111        0.4653580290
 Si        -6.5440764939       -9.3018038150        2.9946011171
 Si         6.4736319075        7.3060871318        2.9460697843
 Si        -1.9087705726        9.0051350247        6.5461922236
 Si         8.1598689737        3.4413847895       -0.3333610701
 Si         5.5833955783       -6.9876839655        5.1194653327
 Si         9.3530701577       -9.6579904550       11.1367039801
 Si        -9.9547571263        1.4790546089        8.0989812602
 Si        -9.4491709303        2.8768084061        4.3618208063
 Si        -6.0730485864       -1.8884711806        8.5022982992
 Si         9.1292940722        6.7270714803        7.1205511328
 Si         6.5228005730       -5.7086949564       -2.8469907739
 Si         9.7083816423        6.8294498037       -1.9875127532
 Si        -8.9675000374        2.8054766154        1.3614082127
 Si         2.4791381271        5.9734714287        9.4649253115
 Se        -2.5723795393       -2.4723629427        3.6519604495
 Se        -1.3236610838       -4.2498528739       -5.2807328941
 Se        -4.9145550589       -5.3995254838       -0.9787406703
 Se        -2.0140819813       -6.6629596938        2.4551648388
 Se         1.6421975272       -6.2136220952       -0.5444986109
 Se         1.5429654813       -8.7329581068        3.2825144166
 Se        -6.6610332308       -2.2353382986        2.4536584817
 Se        -3.8594710264       -1.5348537020       -4.3873064490
 Se        -5.0755739262        0.5045883409       -0.1748625836
 Se        -2.1185946473       -0.8567713483        8.1004170655
 Se         3.8592440411       -1.6615891406       -0.8682091684
 Se        -2.4105845703       -2.9756973139       -0.3184816336
 Se         1.3700476677       -2.9295011821        1.6206493035
 Se         0.5376041428       -4.6791134868        5.7166752832
 Se         5.0070971167       -5.5308115063        1.1784976508
 Se         5.5500981237       -4.7397067196        5.3640470989
 Se        -2.0070634553        3.3903846586       -1.8353118993
 Se        -4.2885628731        3.7987024547        2.3577715153
 Se        -0.7431769072        1.8330457808        4.5779025151
 Se         0.1129335037       -0.1842691171       -2.7335531153
 Se        -0.8605501054        0.8509283243        0.9479409995
 Se         0.5117194333        4.6555070955        1.9687782488
 Se         1.4410822876        2.8054523650        7.7570342137
 Se         5.2153742101        0.3034277247       -3.5748984517
 Se         3.5697755054        1.4409053339        2.5169369407
 Se         1.4157353241       -0.7122329224        5.8298556548
 Se         3.5077021909       -1.4274987731        6.6596910487
 Se         7.7723099192       -2.3936178357        0.3265488287
 Se        -2.1230454565        7.3931116959        0.8403024748
 Se         2.8477332759        7.8325419822        0.7758957515
 Se         2.6722704640        3.3445693824       -1.7931082486
 Se         5.2822735212        5.2697333061        2.7710427113
 Se         6.5500450997        2.1147862537       -1.1598230419
 Cd        -6.8254270393       -3.8852366481        0.4451172569
 Cd        -4.2969503445       -3.6903338748       -2.9605472451
 Cd        -2.8806381975       -4.9295725693        4.2920526169
 Cd        -3.0836720638       -0.9868013669        5.7196244381
 Cd         3.2757114342       -4.1743249146       -0.4802612517
 Cd        -0.7087081339       -4.8938746747        0.8232076050
 Cd        -7.4863880218       -0.1720563291        1.1377674033
 Cd         1.0703053978        1.9632891079        2.3303914749
 Cd        -4.1328172985       -1.7991906159        1.3577505688
 Cd        -0.5098146793        1.0645350498        7.1681370529
 Cd        -1.1803495426       -1.8485634365       -4.3195974341
 Cd         5.1232164032       -1.3256679324        4.3573934287
 Cd        -0.0687030885       -6.7266669211        4.0549075076
 Cd         3.0954222074       -4.0937697699        5.9844406244
 Cd         3.7191650239       -1.2690259050        1.8797691000
 Cd         2.7444157660       -6.7702659697        1.7026958183
 Cd        -1.5700966758        5.8782182212       -1.1325245518
 Cd        -3.2492813438        2.4754884573        0.2831081277
 Cd        -3.2122520780        2.2004816320        4.0620215836
 Cd        -4.0904912775       -0.6759888750       -2.0214832057
 Cd         0.3357499078        2.5678659237       -0.9255078107
 Cd        -0.0933735013       -1.3459474288       -0.1610446788
 Cd        -0.1260580069       -2.5708316016        7.6882581324
 Cd         2.6692811251       -0.3456923030       -3.0662166579
 Cd         6.2573337002       -0.5241482041       -0.8548860235
 Cd         0.3835643422        4.1570938366        5.4822505763
 Cd         5.4543859267       -3.6245795011        2.6878726141
 Cd         0.2858785724       -2.4995892684        3.9313894378
 Cd         2.2002419042        5.7905016946       -0.6318176580
 Cd         0.3052890476        8.0361843003        1.0629904830
 Cd         2.8146688478        5.8409052803        2.8049302570
 Cd        -2.0702099553        5.1533266741        2.7041140429
 Cd         4.2620748332        2.6419678423        0.2426471756
