402
 i =     6700, time =    13400.000, E =     -5882.4061370387
  O         6.5770002400        1.7501297446       10.7845061723
  O        -5.5579286180       -3.5094635476       -7.5292028068
  O         8.9559112149       -5.8043775382        6.6635954548
  O        -7.6190708548        7.4410612826        1.3603952523
  O         1.5442765990        8.3775421743       -4.1020547940
  O         8.1095533746        7.0655642666        2.9916560980
  O        -6.0004885351        7.1370429473        3.5472007958
  O         5.2271694121        6.4184983579       -5.3605336138
  O        -7.9354477794       -5.3861121202       -0.7763122193
  O         8.7294912803       -3.1324334614        5.9391544065
  O         9.4364381537       -2.0727526061       -2.5754461825
  O        -3.2943698583       -2.0263564974       -7.9120843203
  O         8.4814851804       -0.9152010168       -6.3753390070
  O        -4.9562980279       -5.7471422995        9.8918368761
  O        -7.3449023077       -1.1146829356        9.2458603581
  O        -6.4607156812        5.9171133000       -0.3842796093
  O        -0.0808737015       -7.2180279583        7.8035011314
  O        -6.3161243378        1.2811277004       -4.7539482440
  O        -1.6240717191        7.7923735842        6.0167082698
  O         8.4487132312       -5.1099391113       10.5943732103
  O        -8.0836644521       -6.4077192647        5.4564254659
  O         6.7626417229       -7.0360528375        3.9190608533
  O        -8.7037907442       -0.6419420166       -7.8603007223
  O         4.0368818749       -9.4660832387        5.4913680623
  O        -7.5525343277       -3.0040765515       -3.3743031247
  O        -8.6084218240        6.8862428123        3.7370644354
  O        -3.1320041582        6.9552983209       -7.4877368745
  O        -7.0371253987        1.1792457409       10.4973054987
  O        -5.0157831110       -7.6823957296        6.3411151008
  O        -8.9210972978       -8.0639218407        7.3247062819
  O         0.5425217715        6.7647379851       -2.1375736180
  O         3.6258011918        2.6917671922       -5.6447563221
  O        -7.2716952812       -7.5358375070        3.1999334471
  O        -3.7941834951       -7.1882673540       -7.8248696564
  O         6.9948363665       -8.7468686139       -3.3496358272
  O        -7.0270159774       -4.3098380012        9.2804139571
  O         8.8216259710        6.1829001863        8.0025881117
  O        -3.9672764494        2.1045958465       -6.0331666547
  O         4.9295646397       -5.4279416631       -3.4313463227
  O        -6.9980427051        6.0695894661       -4.8586364804
  O        -5.8456817287        3.3490334315       10.0087575359
  O        -1.8830192308        9.3505061955        8.0951577805
  O         5.7399434668        2.6261472898        6.8034970180
  O         4.6876291393        3.6945496891        8.9683558173
  O         9.3830946236        1.7282510351        9.8201081741
  O        -2.5559120839       -6.1367583928        9.0630029420
  O        -7.6860403091        7.1403815589       -7.2985497585
  O         4.8494075910        0.0653754393       10.1239726137
  O         6.4026012406        8.3360309705        9.0174744255
  O        -0.1276885724        3.4202971493       10.4415137408
  O         6.2146773098       -7.1942877616        6.4775433729
  O         4.8432761338       -7.1611963410       -5.4537640633
  O        -3.4224290142        4.4346896669       -7.1167791585
  O         2.4284953686        7.9674210033        9.7109081557
  O         8.4141643391        3.1489526445       -7.3870542278
  O         0.7453580183        4.8902974708       -6.9132819826
  O        -8.6195902432       -2.1140708982       -5.6517066086
  O         9.4031871453        2.0371919283        4.9653950033
  O        -4.9157737931       -5.7320737899       -6.0318951510
  O         4.7142475984       -7.9589308600       -2.8489526440
  O        -8.2357570995        8.4567653026       -5.1423796156
  O        -2.0163125035        8.9999067487       10.7380211289
  O        -6.0362147110        7.4407301377        8.4483193095
  O         3.4214244754       -6.3582049374       10.4600879760
  O        -7.6803927629       -1.7573830701       -1.0092071808
  O        -6.0791620480       -5.1755272200        6.9581886130
  O         0.2298581291       -6.9503060114       -5.2783448749
  O        -7.1531826021       -4.4333431826       -5.5389883993
  O         6.6435925742        0.5188426229        8.3328537037
  O        -8.8632021325        0.5382383765       -5.3942349507
  O         4.3576650308       -4.7167664458       -7.2673895681
  O        -9.3977167308       -4.2948987806        1.2202192269
  O        -8.2710924500        4.8293563259        1.1844997793
  O         4.6486066781        4.9604532648        6.4677136285
  O        -6.7420872301       -9.9713379612       -0.9227175419
  O        -6.7666780807       -9.3588218397        8.3811049046
  O         4.2788938706        7.3381211703        5.7676401162
  O         6.5324895931       -2.7558071283       -6.9720589853
  O         3.4125763409        3.0541950271       -8.2948010262
  O        -1.2040259457        5.2072020388        8.7313232655
  O         6.6920928672       -5.9012233678        8.6824643932
  O        -5.6655359979       -0.1030411937        7.5072746797
  O         9.8809534541        4.0765458372       -4.3110889844
  O        -5.7276733785       -5.7992364957        4.5359328072
  O        -7.3577732836      -10.1551334997        3.2655147120
  O         7.3505130013        0.6994062062        5.8237498300
  O         9.8034414246       -3.0496098758        3.4906756503
  O        -0.4561159710        7.0787969853       -7.4200103537
  O         7.4011359135       -8.5608980324        8.4623876028
  O        -7.7028310405        4.8175362766       -2.4260596057
  O         9.1902480043       -4.2475784549       -1.2295960575
  O         6.0316487912        6.3226386100       -2.7059663901
  O         9.0313066393       -6.0882470100       -6.3657096115
  O         6.0969157457       -3.7416781925        9.9915667637
  O         6.1813739260      -10.2517775377        6.5917933684
  O         8.9210768384        3.5252556351        0.8120142033
  O         8.3997056767       -3.9116301323        8.3473332093
  O        -4.9298760192       -2.0837793369        9.4557118400
  O         6.1802406410        2.5264501309       -6.0261157807
  O         6.6992645347        8.8459168062        1.6960555770
  O        -6.2341360569        8.8043340508       10.7542107044
  O         1.8698654578        7.4682874622       -6.4625806067
  O        -7.3193780622       -7.0104238693        9.2774231990
  O         7.3676217962       -2.0327806994        3.8410439918
  O         4.1953401663       -6.9008789803        4.8250361210
  O        -7.2715295497        5.0169471042        7.6738228560
  O        -8.0171236525        2.1416041600        0.4210216416
  O         4.8870510887       -7.7954207472        8.7265628447
  O         9.2948218863       -6.6731602125       -0.0071450866
  O         9.1665867463       -7.8130915176        4.8609986240
  O         6.7768785758       -6.5273933199       -1.9513267598
  O         6.9506966637       -3.7896837578       -2.3758239118
  O        -0.3294377814       -9.3133302542        6.0546369121
  O         9.8742939290        6.1533171933       -5.7472452937
  O         7.3430419515       -0.8466057624       10.5879424195
  O         0.5491754881       -9.8975279882       10.5157040623
  O        -2.5214577876       -7.0469232871       -5.5101304822
  O        -1.7748053631        8.5085677365       -5.9237952739
  O        -3.5383726465        4.3807585949        9.1993770905
  O        -7.1049583013       -6.3275361454       -3.2314586410
  O         7.5500322275        5.2317146885       -4.7284996981
  O         2.9259482969       -8.9062147033       10.2812567003
  O        -0.7488995857       -8.6687536031       -6.8596924324
  O         6.5926384662        8.5904820194       -5.0314612248
  O         5.9759256954        8.4477862782        4.0810656867
  O        -1.2250828958       -8.0093767096        9.9656992019
  O        -8.3494087238        7.4458808099        7.2308883427
  O        -0.7431562518       -3.1470000567       11.1244543130
  O        -8.4219251002       -8.5349505291        0.7498069116
  O        -5.5302918306        3.7964983116       -4.6477922213
  O         8.0948798851        2.5107979723        7.7124059750
  O        -5.3074685031        5.5305446375       -2.7832756872
  O        -0.1618192937       -5.5229096807        9.9839594043
  O         8.4446910137       -9.4935565202        0.1343566636
  O         5.9521636379        7.7024989138       -0.3408205395
  O        -6.1610344480        9.5153697011       -3.6962080062
  O         8.8431467818        7.1655984851        5.4887417852
  O        -3.7825342233        6.9450451625        4.7051284665
  O        -4.1541417932        1.4020795618        5.7830431963
  O        -5.5982615605        8.5143265912       -6.1523054514
  O         8.9507958887       -9.5812118719       -4.8715925766
  O         7.4429322332        6.3991488120       10.3362258693
  O         1.9207623450       -9.0776573272       -5.7429759123
  O        -6.9146971523        7.4871911608       -2.4851159970
  O        -5.9600930532       -0.9959693332       -7.7350399566
  O         1.9226612395       -7.9744355298        6.0642477869
  O         6.6251785779       -6.2148062147       -7.2964832910
  O        -8.3325523374        2.1652846320       -3.1900534201
  O        -5.0143383831       -8.7440365965        3.7897818130
  O         8.9193463832       -5.6181491434        3.3748234089
  O         3.9767063278        8.7290105613       -5.6733352546
  O        -8.0377433582       -8.2462172919       -5.2016787875
  O         3.2463708193        0.5304298695       -7.1546331527
  O         6.7864561324        4.7557110402        8.1106752831
  O         5.7645663944       -0.4396536897       -6.8563908819
  O         2.3576110143       -6.3599205909       -6.6366498357
  O        10.3642616876        8.6462233121       -2.3443038310
  O        -8.7907177680        2.9314062968        2.8562833207
  O         5.0191786875       -8.0917701480       11.4575829910
  O        -6.3784116433        2.8643572965       -6.8701087177
  O         5.9874919282        8.0220765215       -7.5324110042
  O        -8.9533709220       -9.2280690231        9.5945379826
  O         4.1978275045       -2.1685165817       11.3806472123
  O        -7.9204840114       -5.1056662163        3.1925101379
  O        -3.8128068140        8.8401582262       -4.1727059230
  O         3.7375354425        5.6270096770       10.3792482924
  O        -6.3854477055       -2.6311729253        7.3257539507
  O        -5.4035374515        8.9576051580        5.6997879673
  O         7.4750474305        5.4708061411       -0.4457761145
  O        -6.2478443395        2.4778505876        6.9317298973
  O         0.0829296409        6.3815208582       -4.8273396555
  O         5.8045979914        4.1694251518       -8.0591592146
  O         5.1645090426        4.2090230749       -4.1202568573
  O         9.3705758597        3.6166529341       -1.7607149840
  O        -2.9803392460        5.6872504855        6.9888401238
  O        -1.5383004560       -8.9289513441       -4.2442764393
  O         0.9189964570       -3.2679510389        9.0349478184
  O         1.7728823474       -4.2415776909       11.2352246590
  O         8.1977957618        9.0448167173       10.7337303516
  O        -1.3083143540        2.8767262144       -6.6606884298
  O        -9.0566988622       -9.4438057878       -7.2192923380
  O        -2.9949382982       -9.2594005322        5.6631403755
  O        -7.8648694657       -0.4529277946       -3.2806315392
  O         9.2997768443        4.8061614899        4.2008315122
  O        -4.3027606780        9.3740325800        9.1146162521
  O        -3.3669901301        2.2805634888       -8.5214083502
  O        -1.5683698828        5.4646797522        4.7358688963
  O         1.3698377269        2.3247926747       -6.9649395613
  O         8.6802189642        8.7871373310        7.4780205792
  O        -2.8758472502       -4.7114804696       11.2248288901
  O         1.1335036912        5.6627932813        9.7523080832
  O        -6.9119469951       -5.6932935471       -7.8364284941
  O        -8.5372344557       -3.9851263351        7.1822694111
  O        -6.0859632353        6.4905683351        6.0162835331
  O        -3.5398734520       -5.3524738353        6.0237556486
  O        -4.2830165424        1.9602267802        8.4017323713
  O        -8.3534396773        3.4289467808       11.1533726679
  O         7.5087244482       -5.4811009846       -4.3157494684
  O         8.7662354334       -7.6614539588       11.0637206953
  O         8.8649106173        4.2629805140        9.8129486433
  O        -5.9285239561       -9.0417465626        1.3542048434
  O        -8.6204356315        2.9376723515        7.8776477838
  O         6.1036664386       -9.0380107335       -0.8579838650
  O         6.9558289060       -8.5412539953       -6.1192466330
  O         8.7931588608       -7.9857335409        2.2435284880
  O         2.3936346008        5.7696190094        5.1492959149
  O        -9.6794098963       -6.7578803119       -3.8274707509
  O        -6.3947385961       -7.3794361563       -0.6722723702
  O         9.3300640336        6.2699497324       -3.1579861749
  O        -9.7142627429        0.5774140309        7.2577698961
  O         2.6853771901       -6.8919567037       -4.1197019211
  O        -9.5576404531       -4.2870005192       -4.5380485284
  O         9.4168242702       -0.7782155514        4.9224663954
  O        -5.3928409477        6.2206824755       -7.6784640246
  O        -2.9020956082        7.0756268594        9.2736757879
  O        10.3256549737        6.5244369118       -0.6798721158
  O         1.5616607188       -9.4613580075        8.0849568307
  O        -8.0860292399       -8.5975820899       -2.5901289048
  O        -8.0204138340        3.7187130104        5.4569090132
  O        -1.2167956388        8.0809859549       -3.3812810335
  O        -4.7170293060       -8.4168835545       -5.5922197809
  O        -4.2696273117        6.0796162711       -5.1314528421
  O         8.1044744344        7.7541040989       -1.5281493946
  O         2.8374319384        6.2541156212        7.8487494947
 Si         3.2188491333       -8.1342187540        4.9972666558
 Si        -6.5854803107       -5.6700928654        9.9496264606
 Si        -4.1025690109        5.9087234536       -6.7906570994
 Si         6.4466653058        0.3771335887        9.9087613854
 Si        -9.4229987518       -5.1995844964       -0.1841138309
 Si        -9.5115202952       -7.0509028525        6.0830698902
 Si         9.2191500019        6.5097635608        4.0327624253
 Si        -8.0903290994        6.9619756081       -5.7361987363
 Si         4.0705200129       -7.8176241051       10.1757991529
 Si        -2.9062135199        2.8712653212       -7.0400495734
 Si        -8.9810698503       -9.5277086594       -5.6042682035
 Si         6.0309096904        5.5870244515       -4.1741131949
 Si         3.4740788979        6.0554456757        6.3303285506
 Si        -7.2976309601       -0.4131929011       10.7687305151
 Si         8.1980754829       -6.2706406448       -7.7065720413
 Si         6.3388880410       -7.3612091303        8.0707769239
 Si        -7.3482908035        9.1594322016       -2.4327980637
 Si        -4.9992008819       -6.0309274968        5.9772205909
 Si         4.4733110909        4.1075264468       10.4787477637
 Si        -4.9783911965       -2.1842499828       11.0953589184
 Si        -6.9675495234        6.5681004319        7.4640400559
 Si         2.3504239139        8.7574719885       -5.4846910287
 Si        -5.5695432608        5.3659301096       -4.3630039889
 Si         5.2412651386       -3.4349989948       -7.8638896462
 Si         7.1787986190      -10.1282782495        7.8812392054
 Si        -7.2786280270       -6.1759098530        4.1392223322
 Si         5.0412255956        2.7593849459       -4.8791323941
 Si        -1.8554097625        7.7909078280       -7.3018605382
 Si        -8.1828829099       -3.3863930306       -4.7961958331
 Si         5.4013695812        4.0388550196        7.6158022107
 Si         4.2637203537       -6.8504187222       -3.8997685860
 Si         6.9224063668        1.5769232972        7.1187130908
 Si        -8.8652596622        3.6759164974       -2.9013212294
 Si         9.1917835029       -4.1940010845        7.0160457525
 Si        -6.7226358411       -6.0632593941       -1.6161274973
 Si        -2.1932788914       -3.3054487744       -7.5762753243
 Si        -6.6688218160        6.0085139397       -2.0264088909
 Si         9.4824969906        3.1604651940       10.7634667888
 Si        -8.0409860517       -8.3448938264        8.6908742937
 Si        -2.8713754457        8.6940899427        9.2023954868
 Si         0.4364045668       -4.0197028902       10.3026029192
 Si         8.7889197831       -2.2930382537        4.5028272013
 Si        -5.0729422208        1.3805911744        7.1404814074
 Si        -6.9619157128       -8.7458877774        0.0809571331
 Si         2.8986757723       -5.3442298556       -7.7779913751
 Si        -5.9384706769        8.9420691878        9.1723259048
 Si        -8.2694299097       -1.7858274859       -2.4857520477
 Si         5.4658663394        7.9536140469       -5.9745662605
 Si        -8.2187118490       -7.5190264335       -3.6927575422
 Si        -7.4031390562        7.6422110004        2.9650259909
 Si        -5.2744117720        7.4866609911        4.9796301004
 Si         0.3855979042        7.4176622707       -3.5650774221
 Si         6.2161659765       -8.0603716468       -2.0948767703
 Si         7.9079516760        5.3838499034        9.1339604749
 Si         9.0705334386       -5.6515629696       -4.7845973467
 Si         7.3532836861       -4.6033054179        9.4099230664
 Si        -2.1912784424        8.9274953916       -4.3788420530
 Si        -4.6221884232       -8.9384618659        5.3511789244
 Si        -0.7333524929       -9.1160670204       10.9550678488
 Si        -6.9186217583        2.6744161955       -8.3440840323
 Si         1.8306146371       -7.3501484302       -5.4190809349
 Si        -6.1864020122        7.6601722221       -7.4596105753
 Si         9.1017565719        5.5123714632       -4.4784929652
 Si        -7.4793259561        3.5160595332        6.9333034740
 Si        -0.9527209523       -6.6522234713        9.1337735650
 Si         9.0339819747        0.5700615048        5.6705073599
 Si         9.3648559350       -8.1677795974        0.7168200583
 Si        -5.1115535831        9.5119117346       -4.8850003570
 Si         0.0996157135        4.4823624124        9.2856375300
 Si        -2.7256268224        5.5791372162        8.5642448655
 Si         6.7485838846        2.8974020149       -7.4693250550
 Si         5.8442205634       -7.4817821572       -6.6396000575
 Si         2.9854195938        2.0986336809       -6.9720940472
 Si        -1.1561427301       -7.9204188800       -5.4700586181
 Si        -5.5100557821        2.4440489287       -5.5178507457
 Si         6.8146218792        6.7143236333       -1.3230215258
 Si         8.3811262985       -7.1226368221        3.5781291119
 Si         6.9548989484        7.9930978165       10.5220583632
 Si        -6.1196053940       -4.8375750260       -6.6847641162
 Si        -9.2667604795       -0.7889556278       -6.2428940508
 Si         0.7356100697       -8.4600387798        7.0500116258
 Si         8.2965195355       -2.9926779532       -1.7192352155
 Si        -4.3038446277        2.9946473458        9.6331108673
 Si         4.4115635618       -0.5316106132       -7.7783056344
 Si         0.5825723486        6.4350320814       -6.3880755227
 Si        -6.9833854813       -4.0658146922        7.6622080080
 Si        -2.4652050321        6.4674690162        5.5986037661
 Si         5.1259161033        8.6656060505        5.4801419342
 Si        -4.0110162199       -7.0683506455       -6.1432372886
 Si         7.3691161280       -9.3410583037       -4.7889758599
 Si         1.8851932629        9.4458995173        9.6339250502
 Si         6.9073689525        9.1517808736        0.0628059368
 Si         7.1440365068       -1.2783643578       -7.1840067995
 Si         0.1855954872        3.3686354083       -7.3272513979
 Si        -9.3813824772       -4.5122681173        2.7518628015
 Si        -3.5219351676       -5.9705425628       10.4931381617
 Si        -7.8221583560        0.9273891890       -4.1137915262
 Si        -7.9254317262        6.1471600884        0.4100536617
 Si        -6.3652302003       -8.9030264184        2.9218965847
 Si         6.5805379143        7.6261860910        2.7813012832
 Si        -1.7613918697        9.3747176931        6.3911206111
 Si         8.1945521280        3.9024176413       -0.6031070703
 Si         5.7467624083       -6.4398422199        5.1173525741
 Si         9.3631939546       -9.1582373581       10.8582137044
 Si        -9.8399169266        1.8686490112        8.2223297736
 Si        -9.2876179758        3.3921522592        4.3179009168
 Si        -6.0134044512       -1.4549147149        8.3599360947
 Si         9.4099150528        7.3951899257        7.0206084024
 Si         6.5562838835       -5.2868856439       -2.9847010941
 Si         9.6157223591        7.3311844969       -1.8689389869
 Si        -8.8429727466        3.2452860306        1.2319366770
 Si         2.5558853637        6.3306630684        9.4446810284
 Se        -2.4682718361       -2.0975215869        3.6230055496
 Se        -1.6726508615       -3.6992077804       -5.3784683600
 Se        -4.8059656099       -4.8099285195       -1.4485289692
 Se        -1.7778783962       -6.1663211791        1.9953418050
 Se         1.6958188017       -5.4224679299       -0.5716734227
 Se         2.0758851167       -8.1928514581        3.0425606706
 Se        -6.3248492601       -2.0153331867        2.3477907020
 Se        -4.0396748947       -0.8753406019       -4.4785557078
 Se        -4.6620308649        0.9636367926        0.2049528671
 Se        -1.9440274372       -0.5840943724        8.1684519869
 Se         3.9317569592       -0.7656240207       -0.5868515773
 Se        -2.3821292775       -2.5654936112       -0.5455195143
 Se         1.2292504070       -1.9511097279        1.3387127471
 Se         0.6584305835       -4.3245337612        5.4750229663
 Se         5.2352059248       -4.8063581823        0.7599000900
 Se         5.6473389005       -4.1715848839        5.2933857560
 Se        -2.1218341485        3.9237862304       -2.1449356636
 Se        -4.2941851088        4.2453005340        2.3986299814
 Se        -0.8258487747        1.8663999428        4.6555245185
 Se        -0.0025514537        0.3380530068       -2.8988530577
 Se        -1.2613638632        1.5149362921        0.9550334503
 Se         0.6164784567        5.0828668407        2.1149409016
 Se         1.1716133643        3.1938497145        7.7280471734
 Se         4.9545964053        0.6756138714       -3.8944611091
 Se         3.4316414378        2.0827275183        3.0275542577
 Se         1.4061641283       -0.4024780143        5.4033389946
 Se         3.4604713106       -1.2039610104        6.5083911190
 Se         7.8370388758       -1.4355265038       -0.1174685288
 Se        -2.4033283323        7.7077234844        0.8487390608
 Se         2.5862420190        8.1537899504        0.5099593095
 Se         2.6103894350        3.5037653815       -1.4245746467
 Se         5.4867323937        5.5774460345        2.6999314989
 Se         6.2468637085        2.7643494034       -1.0188211982
 Cd        -6.0277731132       -3.0222730599       -0.0041922173
 Cd        -3.8227295221       -3.5218171219       -3.6344475747
 Cd        -2.8571719032       -4.9463464585        4.0434419733
 Cd        -3.0616745484       -0.6466902695        5.7539428581
 Cd         3.2401486910       -3.2330569643       -0.1631781919
 Cd        -0.4023046087       -4.4366962768        0.4880008481
 Cd        -7.2115343385        0.0654573531        0.5958687818
 Cd         0.9522254377        2.1979724481        2.3034660625
 Cd        -3.9215350581       -1.4723106311        1.4191983937
 Cd        -0.6986475565        1.5339145226        7.2998352166
 Cd        -1.4118328962       -1.1634879286       -4.5162700770
 Cd         5.2215859340       -1.0517953819        4.5536694602
 Cd         0.2231630368       -6.3812548307        3.7461308549
 Cd         3.1627158443       -3.8339576452        5.9339405575
 Cd         3.9670009056       -0.4571764748        2.2329424297
 Cd         3.0498873436       -6.2665403288        1.5559035555
 Cd        -1.6939274059        6.2843565000       -1.3490432046
 Cd        -3.3213107698        3.3350307459        0.1251730579
 Cd        -3.2179954971        2.7519520822        4.2144120519
 Cd        -4.2770631454       -0.4063278428       -1.9904315200
 Cd         0.0347316235        3.0365567356       -0.7867542321
 Cd        -0.3330845570       -0.6850888551       -0.3535000348
 Cd         0.0307309062       -2.0377841032        7.5066658471
 Cd         2.5256228583        0.2926843667       -2.6217564509
 Cd         6.2838680490        0.1484221142       -1.4921732973
 Cd         0.4144276607        4.3819538050        5.2945638295
 Cd         6.0164911847       -2.4946462420        1.8353909866
 Cd         0.1817383361       -2.1769884730        3.8096241265
 Cd         2.3729894186        6.0759485251       -0.8897548634
 Cd         0.0588777231        7.9853094775        0.9492784317
 Cd         2.9495627853        6.3092052160        2.8035289866
 Cd        -2.0554562800        5.6219958623        2.4516490552
 Cd         4.3307181948        3.2370965870        0.8472614079
