402
 i =     7400, time =    14800.000, E =     -5882.4205817528
  O         6.4482329677        2.2203461331       10.5804167553
  O        -5.5670896052       -3.0271768101       -7.5489945843
  O         9.0157356463       -5.1155021965        6.5854997166
  O        -7.6345071101        7.6477125173        1.4638299658
  O         1.5835597671        8.8386307414       -3.9476608716
  O         8.1080133417        7.5512613496        2.9988454796
  O        -6.0866134270        7.7682905711        3.5600385085
  O         5.2323922692        6.7969943603       -5.4358809827
  O        -7.9471956446       -5.1426564567       -0.7086841601
  O         8.7604708039       -2.4494693803        5.9423738193
  O         9.3146272721       -1.5811609291       -2.4467065478
  O        -3.3151631953       -1.9513984650       -7.7447098409
  O         8.4715375381       -0.6262620282       -6.4191964490
  O        -5.0509146556       -5.4438339103        9.6349986859
  O        -7.3640317544       -0.7384247316        9.4899977466
  O        -6.4095687762        6.3978711438       -0.4104870579
  O        -0.2576470634       -6.8001322804        7.4927201319
  O        -6.4150934219        1.7184910354       -4.8167270445
  O        -1.8487878637        8.3496890547        6.0030501664
  O         8.3224772680       -4.7021814938       10.6723757153
  O        -8.0518307518       -5.8547311084        5.3943439408
  O         6.8530271310       -6.8699268901        3.9961754850
  O        -8.7777632436       -0.2710236409       -7.8371112345
  O         3.6680605331       -9.3074472259        5.0875420148
  O        -7.7575135475       -2.5472719001       -3.1793427268
  O        -8.7981910591        7.6828684592        3.9101809590
  O        -3.1005587469        7.3318637759       -7.5994972816
  O        -7.0301714939        1.6221418200       10.7716332749
  O        -5.0037344847       -7.1519319640        6.2265172981
  O        -8.8793534906       -7.3256025182        7.4216715128
  O         0.6152132088        7.0663090145       -2.0144482438
  O         3.4691538606        3.2150461674       -5.6209083717
  O        -7.2264828511       -6.9652007473        3.0951321879
  O        -3.8073963051       -7.0026495299       -7.9583861697
  O         6.9293518272       -8.3962960120       -3.2553094414
  O        -7.0874936144       -4.0166162336        9.2357833965
  O         8.5029612928        6.5024763326        7.9022552353
  O        -4.0128503802        2.5654952893       -5.8384122026
  O         4.9548833153       -4.8639404261       -3.4249967009
  O        -6.9317403894        6.5212069218       -5.0970556334
  O        -5.9262018714        3.8426855191       10.0972783310
  O        -1.9039802867        9.9839070097        7.9872580303
  O         5.5046394209        2.8582454536        7.0232552906
  O         4.3009264363        3.8630981949        8.9750930841
  O         9.4591176246        2.1776518951        9.7075366513
  O        -2.5702909043       -6.1562495470        8.9960871155
  O        -7.7543768902        7.8016532927       -7.2662243395
  O         4.6703878125        0.4897845568       10.2717568876
  O         6.1859192092        9.0953296343        9.2510741191
  O        -0.1016362876        3.8927861703       10.4046682044
  O         5.8733033847       -6.7425270988        6.5141439935
  O         4.8815383413       -6.6537158570       -5.3363196403
  O        -3.5144305473        4.8240611601       -7.1341573176
  O         2.5445257470        8.3780946569        9.5489338159
  O         8.3619432904        3.5234259485       -7.5320048536
  O         0.5223569714        5.2393131837       -6.7823765105
  O        -8.4758690873       -1.5380159857       -5.5122203391
  O         9.1983431707        2.7041219182        4.9383658532
  O        -4.9544620363       -5.3377563500       -6.0009801182
  O         4.5652891743       -7.3348654763       -2.7259503800
  O        -8.3945955541        8.9160653587       -5.1146587542
  O        -1.8648551845        9.3750512624       10.6680684532
  O        -6.3099215157        7.7989319169        8.5008514444
  O         3.2260965693       -6.0091059223       10.3223179728
  O        -7.8532429095       -1.2204621379       -0.8778210409
  O        -6.1298569010       -4.7958163450        6.9605693833
  O         0.1898605815       -6.5514053988       -5.3633229396
  O        -6.8840915964       -3.6757503306       -5.4582906804
  O         6.7487978182        0.8154913501        8.4254591288
  O        -8.8077078514        1.0821703775       -5.4936143028
  O         4.2790324786       -4.2110642771       -7.5771535867
  O        -9.4043618597       -4.0076041481        1.2087686687
  O        -7.9201259584        5.0848011188        1.1024916448
  O         4.6396268996        5.2418725807        6.4602898402
  O        -6.7435394164       -9.6722426620       -0.9165158257
  O        -6.7064525296       -8.9733087400        8.3567945302
  O         4.3716998949        7.7031356637        5.7792479222
  O         6.5069014818       -2.4544735308       -6.7892248755
  O         3.4344298741        3.4259698471       -8.0710765348
  O        -1.1132294581        5.3227658198        8.5043314339
  O         6.6377500109       -5.4011866323        8.7324842110
  O        -5.4614590919        0.4937318810        7.8710185012
  O         9.8120276419        4.4028820716       -4.2980308453
  O        -5.6659061743       -5.3059068572        4.3925346154
  O        -7.5676326040       -9.4971552673        3.0394934917
  O         7.2819174304        1.1417630039        5.8623346321
  O         9.4950980024       -2.6272077208        3.4793838225
  O        -0.5493516749        7.4852874791       -7.3583414930
  O         7.2657603723       -8.1230296816        8.2742509033
  O        -7.5657870190        4.9661784176       -2.3689287871
  O         9.1329816245       -4.1058772726       -1.2878261649
  O         5.9193388509        6.6832606326       -2.6613797838
  O         9.1306968653       -5.7760128669       -6.3704476913
  O         6.0551271032       -3.3010649106       10.1071610444
  O         5.7529622043       -9.5969699902        6.6820677219
  O         9.0978773708        4.1005558348        0.7825280529
  O         8.1482141656       -3.3224353799        8.3860241818
  O        -4.8012574111       -1.5405883116        9.5783173218
  O         6.1770863228        2.8988431315       -6.1925272611
  O         6.5377662617        9.5564601468        1.7505219077
  O        -6.0298717918        9.2004806053       10.7532414249
  O         1.8448448013        7.8667938160       -6.3931899237
  O        -7.5169083094       -6.6622666719        9.5949765903
  O         7.0850574288       -1.4306806050        3.8284207366
  O         4.1244201279       -6.6422322603        4.6975924376
  O        -7.3392245209        5.4661709695        7.6215962034
  O        -8.2033557801        2.4087955328        0.4864620718
  O         4.8664173229       -7.3534760853        8.8343081253
  O         9.0515715133       -6.3566407245        0.1795043516
  O         9.1886284174       -7.2171761554        5.1132667817
  O         6.7370319357       -6.1385987005       -2.1041840126
  O         6.9817554447       -3.3378010136       -2.1836905836
  O        -0.4725184933       -8.8181020409        5.9205899841
  O         9.7974578331        6.5796660633       -5.7971008211
  O         7.1432264305       -0.4476771307       10.6358465786
  O         0.5408737784       -9.6857887726       10.6606652382
  O        -2.5375620136       -6.3427671390       -5.8273045444
  O        -2.1695414622        9.1059821131       -5.9117888550
  O        -3.6708125189        5.0905687492        9.2832047789
  O        -7.1620701680       -5.9657066894       -3.2653743083
  O         7.5792072701        5.8523516314       -4.5910278729
  O         2.9262811495       -8.6325625283       10.1370754671
  O        -0.8228639089       -8.3412659943       -6.8452710301
  O         6.6739825527        8.8622673349       -4.9579433691
  O         6.0940597361        9.0924844797        4.1834908552
  O        -0.6553004074       -7.4722511560       10.0046831698
  O        -8.6282648705        7.7497561059        7.2157069894
  O        -0.9085469234       -3.0533196379       11.1145004540
  O        -8.4458426348       -8.2097510334        0.6192641698
  O        -5.6917428362        4.2711254706       -4.5401131329
  O         8.0003058282        2.9034577387        7.7179416190
  O        -5.2584554089        6.1710588214       -2.8333980570
  O        -0.2399422324       -4.8654096727        9.2962951382
  O         8.4264037412       -9.0666484565        0.1817323331
  O         6.1183636754        8.2835397519       -0.5221185120
  O        -6.2877749401        9.9419877930       -3.6719559462
  O         8.6768076396        7.4563497275        5.4919780419
  O        -3.8620994126        7.1705981521        4.6796574197
  O        -4.2994294528        1.4511854973        5.8176666351
  O        -5.5764656911        8.8568980014       -5.9790810403
  O         8.9049210329       -9.0662437998       -5.0540302049
  O         7.2760040369        6.9615624342       10.2290070760
  O         1.8891877112       -8.6337609627       -5.5301313823
  O        -7.1662104821        7.7458329253       -2.5769078272
  O        -5.9001368180       -0.5525427845       -7.7447560585
  O         1.8173894511       -7.6213062050        6.0239377636
  O         6.6813149466       -5.8117325824       -7.1717423572
  O        -8.1901342787        2.5841323570       -3.0764496784
  O        -5.0382651317       -8.1747962650        3.6851466550
  O         8.8467978007       -5.1984955002        3.3021397689
  O         4.0203978838        9.1786038318       -5.6474752649
  O        -8.0671294384       -7.8257053751       -4.9521151949
  O         3.1527065467        0.8772124648       -7.0806918073
  O         6.5113426472        5.0589289696        8.4312669581
  O         5.6994454931        0.0509121130       -6.7629529396
  O         2.3296874330       -6.0815768680       -6.7126600872
  O        10.3092904984        9.2397260557       -2.2795771894
  O        -8.6736662646        3.4286084552        2.9028432727
  O         4.8345943872       -7.7022633032       11.6301155636
  O        -6.2715803045        3.4088369620       -6.8157813982
  O         5.9681725881        8.5317813357       -7.4479017173
  O        -9.1249464073       -8.8673339738        9.5685584372
  O         4.1460292023       -1.7041179450       11.5605947323
  O        -7.8756416781       -4.4812187159        3.1467926664
  O        -3.7582623075        9.3688365984       -4.0814177939
  O         3.5596375441        6.0134531917       10.5022137438
  O        -6.2282610590       -2.0879681341        7.4682252640
  O        -5.0763464069        9.4102918820        5.6449744167
  O         7.3876595668        5.7020782369       -0.5931742319
  O        -6.2435122625        3.0675708897        6.6411214634
  O         0.1539394735        6.8421097651       -4.6967063099
  O         5.7903493614        4.6050094754       -8.2333390128
  O         5.3233980340        4.4699081685       -4.1838946862
  O         9.4187120447        4.1552879307       -1.7615731469
  O        -3.0516704585        6.0365616580        6.8377474622
  O        -1.6197921267       -8.3466278928       -4.3147447860
  O         0.9236854679       -2.5933388265        9.0823132851
  O         1.6158563534       -4.0312044170       11.2615300073
  O         8.3031765909        9.2587549380       10.9739645395
  O        -1.3932179494        3.2553065261       -6.7724585461
  O        -8.9398610287       -9.0050300077       -7.1967852083
  O        -3.0350169486       -8.5869472543        5.5624905244
  O        -7.9258076886        0.0545433000       -3.2677304608
  O         9.1534573941        5.2660051903        4.0829323406
  O        -4.2050523101        9.5667097397        9.0312921598
  O        -3.4451676214        2.8140233116       -8.5961508468
  O        -1.3989225345        6.0292850424        4.6976224199
  O         1.0973155712        2.6513564829       -6.8863861030
  O         8.2300563703        9.0525607474        7.4082384184
  O        -3.0591733243       -4.5698966048       11.1142062409
  O         1.1866721141        6.0655679981        9.5669955451
  O        -7.0064667113       -5.2079337220       -7.7429107853
  O        -8.5740910432       -3.4010897670        7.2852220618
  O        -6.2838497583        7.1189122469        6.0057169814
  O        -3.6236065944       -4.7193350385        5.9678823196
  O        -4.1728134769        2.6450055104        8.3351076094
  O        -8.4454770772        3.8923006975       11.1693422066
  O         7.5789236392       -4.8828187154       -4.2850444881
  O         8.4941165277       -7.4092049736       11.0458649052
  O         8.8916359767        4.9142139755        9.7909108384
  O        -5.8945480407       -8.3836744513        1.2935548451
  O        -8.5743836524        3.2406257152        7.8152606068
  O         6.0253852886       -8.4422141630       -0.7121132094
  O         6.7219383009       -8.2144156441       -6.0212127544
  O         9.0324591309       -7.6953855407        2.3697150712
  O         2.3979171487        6.0941646817        5.1374327000
  O        -9.7878949702       -6.4937803633       -3.7988070068
  O        -6.2442595907       -7.0833244298       -0.8387215298
  O         9.7830395033        6.6566730616       -3.1866186086
  O        -9.6732884000        1.0318214076        7.0188125591
  O         2.6104066226       -6.3261998881       -4.1825576102
  O        -9.3386566629       -3.9687797496       -4.7497682641
  O         9.1947383794       -0.1588149421        4.7038962129
  O        -5.4477260400        6.6619883274       -7.7290851523
  O        -2.5360003945        7.4830488869        8.9707292387
  O        10.3757642017        6.9781405313       -0.6497082665
  O         1.0784125637       -8.9901171047        8.2254508394
  O        -8.0909204356       -8.1865942375       -2.3193604804
  O        -8.1147825626        4.2680978640        5.3235038391
  O        -1.2223789876        8.6074114340       -3.4243186044
  O        -4.6631555819       -8.0459925088       -5.5816360044
  O        -4.2409644553        6.3566302290       -5.2968967104
  O         8.0561397978        8.0312353245       -1.8893917637
  O         3.0642024549        6.6830169597        7.8048996995
 Si         3.0014135529       -7.8341589241        4.9049009498
 Si        -6.6642612721       -5.3491506079       10.0103941698
 Si        -4.1436430159        6.2819530232       -6.8913123565
 Si         6.2583934083        0.7400385899        9.9789971787
 Si        -9.5262764305       -4.9473416770       -0.1377929090
 Si        -9.3512570942       -6.3788782835        6.1529499528
 Si         9.1605630194        6.9725205879        4.0588142201
 Si        -8.1927124321        7.3607274847       -5.7511655561
 Si         4.0267742295       -7.4298410066       10.2152504523
 Si        -3.0493138818        3.3019831789       -7.0486094093
 Si        -8.9440672613       -9.0454052302       -5.5667193015
 Si         5.9618932113        5.9525757811       -4.2067588329
 Si         3.5341409393        6.4007411265        6.2485664353
 Si        -7.3157234946        0.0238799569       10.8958904442
 Si         8.1763385599       -5.9437855998       -7.6793755449
 Si         6.2394853263       -6.8377742710        8.0864657755
 Si        -7.4454116249        9.4748244407       -2.4592608439
 Si        -5.0315068047       -5.4650571708        5.8843312090
 Si         4.2728635154        4.5443274271       10.5035592731
 Si        -4.8557659714       -1.7077033961       11.2540366047
 Si        -7.1880548582        7.0341106046        7.2905659724
 Si         2.3628639576        9.1543562012       -5.3718276828
 Si        -5.5632688239        5.8613453753       -4.4573300803
 Si         5.2837732618       -2.9396055516       -7.8663651781
 Si         6.8935501952       -9.6403363880        7.8818205998
 Si        -7.1593770948       -5.6552086780        3.9990833758
 Si         5.0089350069        3.1176412352       -5.0000100336
 Si        -1.9022320861        8.2981366426       -7.2355746085
 Si        -8.1642694550       -2.9214685524       -4.6954030463
 Si         5.1978434811        4.3199994732        7.6882618381
 Si         4.1903270993       -6.2233584588       -3.9096369080
 Si         6.7913094932        1.9209155734        7.2456531637
 Si        -8.7754634300        4.0632415979       -2.8726403017
 Si         9.1880440119       -3.5766553823        7.0414095327
 Si        -6.7387707656       -5.7828843198       -1.6889336546
 Si        -2.3825764049       -3.2647905918       -7.6390289825
 Si        -6.6302036704        6.3767969978       -1.9775334123
 Si         9.4080952885        3.6158455993       10.6235086947
 Si        -7.9991261551       -7.9630791224        8.7165422080
 Si        -2.7239464449        9.0378870246        9.0300473058
 Si         0.3908362148       -3.6414147450       10.2402938180
 Si         8.5759273739       -1.6499102378        4.5437210868
 Si        -5.1233027847        1.9511779678        7.1405145023
 Si        -6.9019787298       -8.3388446715       -0.0437081023
 Si         2.8560662409       -5.0462867758       -7.8576792183
 Si        -5.8833692396        9.2445928105        9.1341664635
 Si        -8.4012165954       -1.2547586518       -2.3666211954
 Si         5.4586214199        8.3167592891       -5.8978026549
 Si        -8.3477168450       -7.1550486090       -3.5167711622
 Si        -7.5824886895        8.2500922662        2.9776329571
 Si        -5.3134294449        7.8483393309        4.9315157266
 Si         0.3597242449        7.8258352937       -3.4056344424
 Si         6.0628693291       -7.6224560997       -2.1165408821
 Si         7.7515125773        5.8415070247        9.1351712322
 Si         9.0570260369       -5.2659563372       -4.7309768656
 Si         7.3519347941       -4.1611719116        9.4527071598
 Si        -2.1787425003        9.5162280608       -4.3539423709
 Si        -4.6011071858       -8.4089944308        5.3428290958
 Si        -0.6891391051       -8.6924824493       10.9917513513
 Si        -7.0046204585        3.1833586971       -8.2574220625
 Si         1.8128125598       -6.9635450495       -5.4622400938
 Si        -6.1417640805        8.1736833071       -7.3891321004
 Si         9.1687226278        5.8770095466       -4.4327911237
 Si        -7.5740188201        4.0671229889        6.8458547896
 Si        -0.8788526579       -6.2556453016        8.9090940966
 Si         8.8781671007        1.2274295948        5.5610293916
 Si         9.3350347195       -7.8670023766        0.7849761624
 Si        -5.1488670766        9.9110140269       -4.7723216032
 Si         0.2923375711        4.8057507162        9.1010572319
 Si        -2.6454608031        5.9226902109        8.3961155333
 Si         6.7188661674        3.3810618782       -7.6449086297
 Si         5.7928657605       -7.0554395225       -6.5626663386
 Si         2.7859796513        2.4980268135       -6.9290155972
 Si        -1.2468170287       -7.3420675055       -5.5717605467
 Si        -5.6245896691        2.9385655858       -5.4173249890
 Si         6.8493085693        7.0642399275       -1.3799087675
 Si         8.4964422539       -6.7824750404        3.6448759961
 Si         6.8732055824        8.4556331546       10.6219840765
 Si        -6.1144617309       -4.3042384975       -6.7036795884
 Si        -9.2956259529       -0.3445290103       -6.2124561274
 Si         0.5692574843       -8.0486494329        6.9409654630
 Si         8.3795729902       -2.6729491898       -1.5881508028
 Si        -4.3642702472        3.6579818525        9.5874099009
 Si         4.3262470928       -0.0904030501       -7.6366274018
 Si         0.4896881510        6.7820580361       -6.2795637271
 Si        -7.0013890378       -3.5993613507        7.6599417216
 Si        -2.4212542007        6.8852749366        5.4995525738
 Si         4.9940200934        9.1503563659        5.4161911830
 Si        -4.0495532171       -6.7350377286       -6.3374481117
 Si         7.3205274807       -8.9961754668       -4.7238333494
 Si         1.7617476316        9.7621824847        9.5538869508
 Si         6.8341347748        9.7255617786        0.1378041448
 Si         7.0481730265       -0.9038841959       -7.1619764870
 Si         0.0492249139        3.7568078082       -7.3426730885
 Si        -9.4142286270       -4.0192548910        2.8621638317
 Si        -3.5909794963       -5.8625250224       10.2159886164
 Si        -7.9136922553        1.3587275428       -4.1737676021
 Si        -7.8431323001        6.5440598027        0.3488482590
 Si        -6.4022549881       -8.3366641829        2.8251562936
 Si         6.5953737928        8.2621200608        2.8061487883
 Si        -1.8955429473        9.9144821024        6.3238297087
 Si         8.3070883052        4.2970717036       -0.6300769482
 Si         5.7373771228       -6.1794461998        4.9567987833
 Si         9.3109150606       -8.8462289592       11.0051905689
 Si        -9.8359925295        2.2916945170        8.0724619532
 Si        -9.2988021100        3.9060186151        4.2665781306
 Si        -5.9543910702       -0.8741162466        8.5793753416
 Si         9.0460567114        7.7475945957        7.0208748689
 Si         6.5959303814       -4.7733775259       -2.9642917939
 Si         9.6628027688        7.7408597106       -1.9491146786
 Si        -8.7455038616        3.6432167733        1.2813407492
 Si         2.6397288521        6.7664161475        9.3582442457
 Se        -2.3485965016       -1.5792401112        3.7082954729
 Se        -1.7125237907       -3.4857372255       -5.4051427094
 Se        -4.9982885239       -4.3318819003       -1.4908177139
 Se        -1.8179248563       -5.5936666032        2.2424603847
 Se         1.6192664716       -5.3105418178       -0.7231927179
 Se         1.8168605271       -7.7676320185        2.8855611780
 Se        -6.1605435317       -1.5436123291        2.2250497987
 Se        -4.1294627161       -0.5570621646       -4.6298828119
 Se        -4.5638626007        1.2752560543        0.1006249401
 Se        -1.7781793590       -0.2671482468        8.1626475194
 Se         3.9114741981       -0.8676148669       -1.0434101161
 Se        -2.2211683803       -2.2816460746       -0.6745332202
 Se         1.2978304307       -1.9230769398        1.3649663439
 Se         0.7887562782       -3.8888337307        5.3923859447
 Se         5.4815115198       -4.7733110094        0.5807100274
 Se         5.8129354376       -4.0035393434        4.8377704681
 Se        -2.1517392074        4.1116470483       -2.4059442529
 Se        -3.9584441580        4.2665041471        2.3414770248
 Se        -0.5703222146        2.2905197882        4.5464263883
 Se         0.1438713093        0.4653165731       -2.9487847543
 Se        -0.6546781455        1.8632643096        0.5699173082
 Se         0.8204390938        5.1053054123        2.0862468572
 Se         1.3308185262        3.6308066707        7.5883673604
 Se         5.1010472763        1.2062376496       -3.8202714074
 Se         3.8065955283        2.0035678062        2.6447808070
 Se         1.5902805425       -0.1232240185        5.6471084445
 Se         3.8166884550       -0.8563935183        6.3822816283
 Se         7.8897190225       -1.4136661994        0.3265250887
 Se        -2.2996469180        7.8958982474        0.8472309972
 Se         2.6287973680        8.7639853007        0.6068308923
 Se         2.7782172324        4.0233812368       -1.6604886773
 Se         5.4428703308        6.3505660853        2.2131510139
 Se         6.4900381887        2.9102023596       -1.0011226325
 Cd        -6.4909132972       -2.8046547640       -0.0200503968
 Cd        -4.0454724762       -3.2141438353       -3.8920748755
 Cd        -2.8865987046       -4.0574708515        4.0359056025
 Cd        -3.1903947973       -0.3623557548        5.9383719403
 Cd         3.7180522594       -3.5380914656       -0.8965968928
 Cd        -0.1610442504       -3.9547624311        0.7061598435
 Cd        -7.2047930622        0.5165905200        0.8460842923
 Cd         1.2831437982        2.4282575788        2.3095103683
 Cd        -3.5874799652       -1.1330038276        1.3093259623
 Cd        -0.5610422157        1.8787680248        7.2359547660
 Cd        -1.4888393513       -0.9538279695       -4.5575770944
 Cd         5.2187990720       -0.3498913540        4.1155898296
 Cd         0.4296069534       -5.8371716800        3.5671155149
 Cd         3.3080016919       -3.5521919179        5.5771588488
 Cd         3.8048563281       -0.5392660876        1.6941048555
 Cd         3.4228169587       -6.2394224017        1.1005026134
 Cd        -1.8606959721        6.4287658375       -1.2183233059
 Cd        -2.7823125990        3.3078889776        0.1547013957
 Cd        -3.2073069242        2.6775790575        4.0981555025
 Cd        -4.2219192922        0.2190113698       -2.1590367521
 Cd         0.1842334145        3.4440179800       -1.3768076455
 Cd        -0.2421847584       -0.5623363994       -0.6323054260
 Cd         0.1519028339       -1.8877963102        7.3356279934
 Cd         2.7409440522        0.3496790622       -3.0437108158
 Cd         6.2992960149        0.4371653259       -0.8767200291
 Cd         0.5754513101        4.7374293463        5.1345485784
 Cd         5.9471472290       -2.5890733402        2.1294799396
 Cd         0.4675986454       -1.6629880528        3.7302443936
 Cd         2.3625938166        6.4727789009       -0.6627601078
 Cd         0.0337703739        8.7572621341        0.6775197109
 Cd         2.8919453780        6.6425676715        2.8531574567
 Cd        -1.6689818381        5.7330576669        2.3990942180
 Cd         4.2335795529        3.3361928332        0.4104350516
