402
 i =     5300, time =    10600.000, E =     -5882.4319530065
  O         6.5838357402        1.3188159836       10.7403725903
  O        -5.4722888504       -4.2231953340       -7.4808335449
  O         9.0546594875       -6.3842250535        6.8207861318
  O        -7.7913489986        6.8985864653        1.5901136634
  O         1.5848295132        7.8854522890       -3.7525234910
  O         7.9627072454        6.6239846938        3.3067308198
  O        -6.0984567376        6.9905342576        3.7028811466
  O         5.2969864424        5.7139463026       -5.1597616621
  O        -8.0993293031       -6.0882523626       -0.5581566762
  O         8.5880211747       -3.8303013763        5.9555847556
  O         9.2709450224       -2.5155028194       -2.2304050700
  O        -3.4076101678       -2.8414881253       -7.7629421634
  O         8.4237356170       -1.5612578403       -6.3152277829
  O        -5.1292395652       -6.4298231413        9.8915526704
  O        -7.4246774466       -1.3479455014        9.6128832636
  O        -6.6919629472        5.5644679253       -0.2682452231
  O        -0.2078804900       -7.6970644043        7.7542640115
  O        -6.3890174917        0.8258218382       -4.5063499740
  O        -1.9437745929        7.4648943208        6.2118794796
  O         8.2228901139       -5.6170526853       10.7523020389
  O        -8.0975198374       -7.0216138056        5.6047153386
  O         6.7417112157       -7.8654616396        4.0815672620
  O        -8.7762537640       -0.9973219002       -7.5871081183
  O         3.7856628217      -10.1273871605        5.4067612534
  O        -7.8367038647       -3.5087575990       -3.1607934662
  O        -8.8547979814        6.3297316566        3.8983222215
  O        -3.0003408662        6.3452222650       -7.3168770531
  O        -6.9953210060        0.7216116853       11.1151578595
  O        -5.3459399519       -8.1088056621        6.3880240864
  O        -9.0571469860       -8.5646358196        7.4470814454
  O         0.4001968025        6.2628976490       -1.8270743632
  O         3.3421737160        2.1601568525       -5.3580023675
  O        -7.3762296490       -7.8971217972        3.2348214528
  O        -3.6793175020       -7.8931034774       -7.7584462716
  O         6.9437588788       -9.3807728630       -3.0850780241
  O        -7.2263188762       -4.9906815472        9.4803382378
  O         8.6638022857        5.7996920039        8.2904162032
  O        -4.1787954075        1.6842520763       -5.8382146078
  O         4.9260814488       -6.0124132131       -3.2474166399
  O        -7.1907399237        5.3729197485       -4.9751490966
  O        -5.7691849183        3.0654377684       10.4210847081
  O        -2.1876773018        9.0088066890        8.3222473337
  O         5.6226463832        1.9804341906        6.9659071155
  O         4.3043291437        2.9079852117        9.0098598533
  O         9.5293949442        1.3077005239        9.8170234926
  O        -2.7046871860       -7.1083366553        9.1542552786
  O        -7.7557733099        6.6360714797       -7.1099532259
  O         4.6943624476       -0.4726752757       10.3846856614
  O         6.2704474185        8.1746969242        9.4465426835
  O        -0.2740847737        3.2297860959       10.8002182416
  O         5.7474398275       -7.6732048212        6.5613041532
  O         4.7604744105       -7.6067132926       -5.2523167152
  O        -3.6425119068        3.9972294765       -6.9787900798
  O         2.5459112703        7.4616347162        9.7875802387
  O         8.2440850730        2.6192449569       -7.2767410135
  O         0.7708206844        4.2671418507       -6.3060287083
  O        -8.7736194590       -2.5972136108       -5.4453117981
  O         9.4921948981        1.4269835371        4.9405862746
  O        -5.0675140583       -6.4338516172       -5.8905755388
  O         4.6353982913       -8.4653418696       -2.5379783906
  O        -8.4810191669        7.8274932814       -5.1059514222
  O        -2.0416714030        8.5297291650       10.9300794576
  O        -6.3166524564        6.8120770915        8.7362061927
  O         3.1352617825       -6.8417491510       10.5109037982
  O        -7.8036089933       -2.3175849102       -0.7444728000
  O        -6.2695360798       -5.7964526003        7.2928441510
  O         0.1980255961       -7.7131804996       -4.8688163846
  O        -7.1133758977       -4.7394194087       -5.4774824244
  O         6.3489936323       -0.0516725148        8.3701672986
  O        -8.9522858886        0.1196278014       -5.1636492007
  O         4.1601305255       -5.0581392592       -7.2583683439
  O        -9.5266203389       -5.0868839985        1.3506451606
  O        -8.5142213881        4.3420751253        1.1389619127
  O         4.4460601574        4.2406062937        6.7204693552
  O        -6.8768815103      -10.7684150047       -0.7528036657
  O        -6.9102150494       -9.8743059778        8.4643797377
  O         4.4657934481        6.6854519224        5.9286401035
  O         6.3823367486       -3.3338000547       -6.9368255918
  O         3.3717207770        2.5210482169       -8.0622981721
  O        -1.1902128008        4.6189479295        8.7408236024
  O         6.3544730318       -6.3236470336        8.8540728653
  O        -5.6797688456       -0.4846201529        7.7721683202
  O         9.8006996545        3.3035040744       -3.9714168239
  O        -5.9046334476       -6.1755824520        4.6740594757
  O        -7.7585779447      -10.4616188523        3.5658054803
  O         7.3584317016        0.1444976212        5.9360727074
  O         9.4240206465       -3.6421274352        3.5009968216
  O        -0.4509244939        6.3584867647       -7.3472807259
  O         7.0545612092       -8.9382959607        8.3612386943
  O        -7.7481914528        4.1651194771       -2.1513087402
  O         8.9996757407       -5.0633437526       -1.1703432676
  O         5.8966545780        5.5562603183       -2.4986278140
  O         9.1925540013       -6.5702237436       -6.2468598774
  O         5.9753105137       -4.1566205171       10.1347725843
  O         5.9170660056      -10.8591033073        6.8654533497
  O         8.6822182311        2.9378361123        1.1631575914
  O         8.2114078697       -4.4640175904        8.4510215295
  O        -5.0511203046       -2.5542777366        9.5601544598
  O         5.9705581392        2.0297579579       -6.0313396845
  O         6.4580140114        8.3398073732        1.8481672890
  O        -6.3582196137        8.4384411519       10.9546953365
  O         1.9001282556        7.0032799955       -6.3466818012
  O        -7.6636723703       -7.6110730527        9.5304049046
  O         7.2176722028       -2.3871370829        3.9208907787
  O         4.0195458322       -7.5171184001        4.6697700454
  O        -7.0466600194        4.3793147614        7.7162504185
  O        -8.3429725989        1.6591505796        0.5152323886
  O         4.6473317076       -8.3374985170        8.9681853610
  O         9.0814329237       -7.4631635350        0.0804916565
  O         9.0613155550       -8.3903137471        5.1118189978
  O         6.8853542622       -7.0047751867       -1.7906841357
  O         6.9632819073       -4.3021337730       -2.5245436211
  O        -0.5000183119       -9.7587856653        6.3242246973
  O         9.6102620412        5.5215535796       -5.6929500501
  O         7.1144108265       -1.3724023973       10.6735506756
  O         0.5750286938      -10.4569830405       10.9494618376
  O        -2.5565597556       -7.2470108719       -5.4734393763
  O        -1.7969011151        7.9191912277       -5.7099641060
  O        -3.5360265108        4.0065733342        9.3500190957
  O        -7.0768135709       -6.8959137928       -2.9310167352
  O         7.5038372144        4.4984125516       -4.3185817529
  O         2.7804496903       -9.3857015151       10.3465317502
  O        -1.2164889003       -9.0693402127       -6.7753267376
  O         6.6357940031        7.9199455063       -4.6660173763
  O         5.8949208033        8.0542126918        4.2560751014
  O        -0.8049895531       -8.4314826791       10.0905285076
  O        -8.5793967030        6.8345195796        7.3096906355
  O        -0.9431141232       -3.6943759663       10.9018181766
  O        -8.6049067237       -9.4263667521        0.7811387397
  O        -5.6275841358        3.2548733367       -4.2693169515
  O         8.1741219179        1.9296679535        7.6383495241
  O        -5.4181416285        5.2749708583       -2.7158095315
  O        -0.2006780621       -5.9008993467        9.5671309172
  O         8.2850170658      -10.1329596117        0.3041591344
  O         6.2455316434        7.2122726772       -0.3757622752
  O        -6.1972957640        9.0068568124       -3.5086798979
  O         8.8066392601        6.4002142483        5.7868407473
  O        -3.8982016601        6.3991719940        4.8276172710
  O        -4.0060402831        0.7665902211        6.0551108956
  O        -5.6810110560        8.0606586256       -5.9313588454
  O         8.9083670515       -9.8373364187       -4.7189206015
  O         7.2853851657        5.9930275919       10.5149340342
  O         1.9496916589       -9.5806625372       -5.4930578440
  O        -7.2285972633        6.8724379238       -2.5463617005
  O        -6.0068997260       -1.6588454892       -7.6397629428
  O         1.8688328076       -8.4960801642        6.2130542849
  O         6.6626522680       -6.8792439805       -6.9417804093
  O        -8.1981948015        1.5980112447       -2.8346535942
  O        -5.3185730988       -9.2531515283        4.0309477187
  O         8.8944345865       -6.2251750717        3.6423768285
  O         4.0206863937        8.0333611754       -5.1436444926
  O        -8.0139709810       -8.8410913371       -4.8932911384
  O         3.1723710823        0.0246219609       -6.9926017580
  O         6.3755027003        4.3217403590        8.4894051270
  O         5.6430279615       -0.9576385157       -6.6106037496
  O         2.2062684794       -6.9805159968       -6.4794174049
  O        10.2837513915        8.2407696446       -2.2759573091
  O        -8.8279434111        2.6288797333        2.9861977387
  O         4.8434619640       -8.6919683282       11.6595275862
  O        -6.6127431920        2.6343862469       -6.4553929141
  O         5.8271733048        7.4367828528       -7.2646140519
  O        -9.1062304973       -9.8903932523        9.7343992092
  O         4.0034733386       -2.6322200001       11.6273171973
  O        -7.9642975845       -5.4153216090        3.3536288583
  O        -3.7342507909        8.4464736104       -4.0061708198
  O         3.7077582377        5.0571514437       10.2890442096
  O        -6.5478065508       -3.0577951421        7.5765755035
  O        -5.2922435662        8.4616753740        5.9441317264
  O         7.4688017128        4.7171391315       -0.4472067386
  O        -6.2191583027        1.9498002086        6.7411393682
  O         0.2644011798        5.8766668327       -4.5780763381
  O         5.6872529030        3.6066827980       -8.0362648108
  O         5.1904905372        3.3874030752       -3.9305865919
  O         9.3764937671        3.0145188929       -1.3504752344
  O        -3.0644750495        5.1943476093        7.0322794244
  O        -1.6447212982       -9.3385085332       -4.3073892663
  O         0.9908600465       -3.5632435382        9.0693613842
  O         1.4772956538       -4.9540590012       11.4127902790
  O         8.2332191314        8.4152884243       11.2520989154
  O        -1.4662143190        2.4680955657       -6.4673393348
  O        -9.0988021552       -9.8649418175       -7.0568985316
  O        -3.0782256045       -9.5578007761        5.9199831831
  O        -7.8412843779       -0.9153633468       -2.9735665724
  O         9.0208489034        4.2687151215        4.3954754424
  O        -4.3986158730        8.6246443884        9.3080644333
  O        -3.3495995845        1.9224903522       -8.3951249654
  O        -1.5095718031        5.0297553446        4.7641155760
  O         1.1720708814        1.7621585743       -6.8488484749
  O         8.3994262593        8.3077974547        7.6809465214
  O        -3.0565022304       -5.3751860356       11.1977343908
  O         1.1198157673        5.2663069897        9.8817754638
  O        -7.0253676533       -6.3246702317       -7.6621845548
  O        -8.6656200611       -4.3589575356        7.2957997728
  O        -6.1272486352        6.0429593810        6.1633028351
  O        -3.6989638375       -5.9379567158        6.1737749925
  O        -4.4568555026        1.7037257019        8.5437641276
  O        -8.5062985895        3.0368436864       11.2642602108
  O         7.3807099591       -6.2209243634       -4.3531648327
  O         8.6169133672       -8.2972098143       10.9804863672
  O         8.6164012757        3.8662051191        9.9288586180
  O        -6.1846335713       -9.6808614452        1.5848653951
  O        -8.5052329225        2.3743514821        8.0023663108
  O         5.9776001302       -9.3874739323       -0.5064795208
  O         6.8026954519       -9.2748646960       -5.9603447483
  O         8.7285299927       -8.6480628056        2.3758113245
  O         2.3361720568        5.3149848192        5.3083037507
  O        -9.6022113515       -7.2177637909       -3.6304800892
  O        -6.4622004042       -8.1893207639       -0.4881850270
  O         9.7137765628        5.6998483488       -3.2064543500
  O        -9.5159787801        0.1509926223        7.2253067447
  O         2.5685681099       -7.4040751993       -3.8505920942
  O        -9.6903283699       -4.8365720690       -4.4970081670
  O         9.3759098007       -1.4128234389        5.1181305380
  O        -5.4360205521        5.9487367633       -7.6626250701
  O        -2.6725640352        6.5638398452        9.3086186116
  O        10.1958215421        6.2476089096       -0.5333013152
  O         1.0688904118       -9.9570259625        8.4028495695
  O        -8.0823868493       -9.2034870197       -2.3777654033
  O        -8.1907142380        3.2836451346        5.5337639426
  O        -1.2465377867        7.6638781595       -3.2019705296
  O        -4.6578930459       -8.9877397676       -5.4842908887
  O        -4.5449025615        5.5571158256       -5.1017344920
  O         8.0876898268        6.8840726122       -1.9189858528
  O         2.8067493334        5.9074027993        7.8386467010
 Si         2.9640519907       -8.8042267659        4.9958605651
 Si        -6.7262735880       -6.4030609992       10.1433897416
 Si        -4.1708650041        5.4576760781       -6.7096204921
 Si         6.2005530459       -0.1617536795       10.0425382929
 Si        -9.6221926940       -5.9608438442       -0.0404044494
 Si        -9.5119543435       -7.6122785071        6.2256586371
 Si         9.0461212875        5.8542745069        4.3113818112
 Si        -8.2980354873        6.3208966037       -5.6134060608
 Si         3.9046440555       -8.2678056296       10.3658990312
 Si        -3.0885856529        2.4543040964       -6.8221072167
 Si        -9.0198058564      -10.0169524835       -5.4657738700
 Si         5.9676752198        4.7826866667       -3.9438622419
 Si         3.5087707640        5.5269164317        6.3869040684
 Si        -7.3200561436       -0.8379863465       11.1170530648
 Si         8.2236635540       -6.8704662160       -7.5703873373
 Si         5.9294761527       -7.7419838589        8.2484757404
 Si        -7.4491115258        8.5364627442       -2.3844034981
 Si        -5.1899824719       -6.4592881726        6.2393080235
 Si         4.3234132464        3.5089912651       10.4712893121
 Si        -5.0161416521       -2.8405825229       11.1758234734
 Si        -7.0960724541        6.0255655531        7.4981416235
 Si         2.3775804694        8.1606198105       -5.2533641825
 Si        -5.7738756590        4.8377799914       -4.2536775260
 Si         5.0955628722       -3.8506198469       -7.8402100474
 Si         6.9287105845      -10.5596336096        8.0974885819
 Si        -7.4107709016       -6.6083374721        4.2073950071
 Si         4.9331127253        2.0485125460       -4.7806834123
 Si        -1.7456983372        7.2682628270       -7.1195082231
 Si        -8.2980014894       -3.9312218542       -4.6810788295
 Si         5.2715779917        3.3791198661        7.7854259137
 Si         4.1795845322       -7.4304566165       -3.6688813637
 Si         6.8932002556        1.0067657021        7.2421916163
 Si        -8.8616140089        3.0378208920       -2.4904568251
 Si         9.1342005745       -4.7832578920        7.1654525466
 Si        -6.8444345828       -6.8052783173       -1.3597995791
 Si        -2.2917987911       -4.0172765053       -7.6088681613
 Si        -6.7553357214        5.5074505576       -1.8868034599
 Si         9.3325671701        2.6833846945       10.8181571723
 Si        -8.2216268257       -8.9262736526        8.7753537336
 Si        -2.9019280269        8.1323757489        9.4584053948
 Si         0.3983428942       -4.4591226044       10.2328624870
 Si         8.5786097627       -2.8170301773        4.6328606052
 Si        -5.0685311579        0.9587181207        7.2390261554
 Si        -7.0370530423       -9.5419245167        0.1890151383
 Si         2.7206350397       -5.9224149298       -7.6175080364
 Si        -6.0855498153        8.3600511054        9.3358864960
 Si        -8.4248393423       -2.3054403026       -2.2383198877
 Si         5.4574923481        7.2764527209       -5.6271775748
 Si        -8.2091320767       -8.0612136415       -3.4774783958
 Si        -7.6635671262        7.3094282852        3.1451298488
 Si        -5.4149090934        7.0347649457        5.2102184894
 Si         0.2748166326        6.9749785339       -3.3120100367
 Si         6.1954782762       -8.5524397426       -1.9225828428
 Si         7.7058543025        4.9511354189        9.2743761426
 Si         9.0006479466       -6.2908157915       -4.6936575767
 Si         7.2224876724       -5.1435467339        9.5695012284
 Si        -2.1430518243        8.5303423707       -4.2176266165
 Si        -4.7298592848       -9.4153780312        5.5954949898
 Si        -0.7527803060       -9.5455154247       11.1682057029
 Si        -7.0170192652        2.3476034992       -8.0250210543
 Si         1.7821950150       -7.9478289184       -5.2270253561
 Si        -6.3132443756        7.3301698177       -7.2180704575
 Si         9.1094551597        4.7416666583       -4.3282723868
 Si        -7.4560298585        2.9803406488        6.9407026240
 Si        -1.0269740858       -7.1590540012        9.1200390464
 Si         9.0078192522        0.0742465320        5.7391691068
 Si         9.2849605656       -8.9433006812        0.8568997856
 Si        -5.1571962160        9.0088534618       -4.6917747391
 Si         0.1839323445        4.0477620993        9.4398353367
 Si        -2.7114868008        5.1082793513        8.5964821915
 Si         6.5726232683        2.4226732943       -7.4548969857
 Si         5.7116968911       -8.1405076773       -6.4493742468
 Si         2.7590916859        1.5991095988       -6.7758924455
 Si        -1.2872431853       -8.2324406894       -5.3122042937
 Si        -5.6801349537        2.0427318765       -5.3062782475
 Si         6.8939190357        6.0119045437       -1.3154036407
 Si         8.3340926317       -7.7691726154        3.7239111797
 Si         6.8777131074        7.5592182779       10.8541254457
 Si        -6.1561573020       -5.4068745875       -6.6223530290
 Si        -9.4208447132       -1.2048996880       -6.0749151344
 Si         0.6050326089       -8.9564493713        7.2118710269
 Si         8.1938963144       -3.6674541119       -1.5732821263
 Si        -4.2669574527        2.6176906900        9.8577385173
 Si         4.2950254062       -1.0129626871       -7.5290890309
 Si         0.6440241733        5.9040086023       -6.1279526817
 Si        -7.1713077811       -4.5165372071        7.8791346968
 Si        -2.4978294881        5.9860026510        5.6291182066
 Si         4.9734342126        8.1845172087        5.5799821320
 Si        -4.0498358251       -7.6738515866       -6.1600200811
 Si         7.3258735505       -9.9890735753       -4.5519259119
 Si         1.7478776142        8.9029011138        9.8606136081
 Si         6.7263407827        8.6882890332        0.2778628806
 Si         6.9608083527       -1.7653363814       -7.1009823964
 Si         0.0612268619        2.8842987421       -7.0047785907
 Si        -9.5378667616       -5.0878127680        2.9583330881
 Si        -3.6538094443       -6.7190280702       10.4821820018
 Si        -7.9059337371        0.3997299089       -3.8574625369
 Si        -8.0755664393        5.7569840812        0.5184889508
 Si        -6.6936906309       -9.3556242098        3.0734061304
 Si         6.4708353593        7.1111483981        2.9552969946
 Si        -1.9776835742        8.9596273278        6.7091158157
 Si         8.1177258956        3.2164040989       -0.3229083663
 Si         5.5620342769       -7.1987382372        4.9769311613
 Si         9.2803817652       -9.7844409757       11.0283079792
 Si        -9.7767847098        1.4673136159        8.1901474462
 Si        -9.3916240741        2.9191755676        4.4387994972
 Si        -6.2176465772       -1.7856144854        8.6069110343
 Si         9.1591990564        6.8864765638        7.2353090260
 Si         6.5471070480       -5.8763475256       -2.9748794437
 Si         9.6864307648        6.8120826736       -1.9648622680
 Si        -9.0460094055        2.8211550452        1.4063414668
 Si         2.5934478197        5.8860708538        9.3989757760
 Se        -2.2923676646       -2.3940144388        3.6764078041
 Se        -1.3804415025       -4.4351826129       -5.5512071951
 Se        -5.0555061857       -5.3887471507       -0.6877613097
 Se        -1.7769212678       -6.2559270157        2.2495541623
 Se         1.6633744830       -5.9795131276       -0.8547017852
 Se         1.8304405215       -8.7377688079        3.0283174018
 Se        -6.3324851456       -1.9248648613        2.5194477755
 Se        -4.1781655969       -1.9979440139       -4.4460034639
 Se        -4.9788554711        0.4990859395       -0.3439199668
 Se        -2.0488967363       -1.0063562295        8.4228630471
 Se         3.8047563953       -1.8561125955       -1.0213628072
 Se        -2.3311017658       -3.0814580647       -0.4435124839
 Se         1.1443435856       -2.6014774079        1.5878792732
 Se         0.8502479799       -4.9907926012        5.5647586669
 Se         5.3891509332       -5.7931685429        0.6917012467
 Se         5.8578443094       -4.9278565113        4.7682365018
 Se        -2.2744978212        3.6737628524       -2.0693115600
 Se        -3.9827225524        3.4684082892        2.5775758377
 Se        -0.5506274517        1.2102580282        4.9105033812
 Se         0.0857506898       -0.2015341608       -3.1544440999
 Se        -1.0768142632        0.8140583133        0.7583038974
 Se         0.6563674188        3.9793412983        2.4776377100
 Se         1.2461446255        2.6883695350        7.9108816804
 Se         5.1558197328        0.1449632612       -3.7564069153
 Se         3.4576839075        0.9419299207        2.6895122103
 Se         1.6967557916       -0.8014445552        5.8026009402
 Se         3.8754516919       -1.9025045336        6.3995386792
 Se         7.6122807158       -2.4879268722        0.3690562417
 Se        -2.1359935648        7.4794797868        1.2490418569
 Se         2.8093092196        7.1984952263        1.0026757612
 Se         2.5176944288        3.0726986488       -1.7381836554
 Se         5.4701808667        5.1087222195        2.7915217273
 Se         6.2599223155        2.0696652951       -1.1457896479
 Cd        -6.7377180711       -3.6395379324        0.5992456132
 Cd        -3.8299211370       -3.7987131941       -2.5200850397
 Cd        -2.8806565853       -4.9222545557        4.3026327355
 Cd        -2.8701379711       -1.1565574752        5.8206185665
 Cd         3.6720715375       -4.3634698891       -0.6808063218
 Cd        -0.2465708383       -4.7154570835        0.6400643193
 Cd        -7.3272475753       -0.1265722554        0.7367804439
 Cd         0.8841518608        1.1056686326        2.4901052134
 Cd        -3.8526922358       -1.6760074709        1.2789486632
 Cd        -0.7472496953        1.0190318376        7.5192714742
 Cd        -1.3192500789       -1.9941848207       -4.4943950080
 Cd         5.0449348227       -1.6287067053        4.0773940747
 Cd         0.2571828663       -6.8381435067        3.8306493581
 Cd         3.3522654858       -4.3962539645        5.5420570691
 Cd         3.6271948622       -1.6743187475        1.6344712416
 Cd         3.0622489840       -7.0255031868        1.2441270814
 Cd        -1.8187678618        5.9206986664       -0.9389555947
 Cd        -3.5001465295        2.7917085836        0.1292840875
 Cd        -2.9209898026        1.8989789621        4.3266986509
 Cd        -4.7346711455       -0.3299750183       -2.6829214624
 Cd        -0.0749745301        2.5468300747       -0.9044748309
 Cd        -0.2778549193       -1.3327935736       -0.6380559144
 Cd         0.2636598846       -2.1040288515        7.7431315547
 Cd         2.8020717316       -0.2973815746       -3.1053971609
 Cd         6.3476751474       -0.6151731940       -0.7044680560
 Cd         0.4817241888        3.9989008596        5.3539270672
 Cd         5.7197500982       -3.7846616737        2.1877615965
 Cd         0.3044031420       -2.6880953136        4.0093522829
 Cd         2.1333058964        5.3929570814       -0.6904200334
 Cd         0.3960386306        7.6446691821        1.1134492038
 Cd         2.9390270804        5.4947856757        3.0103750794
 Cd        -1.8670356690        5.0491331901        2.4435778060
 Cd         3.9246980907        2.0877278265        0.4472918180
