402
 i =     9300, time =    18600.000, E =     -5882.3852917388
  O         6.6768358103        2.8797062554       10.1790022113
  O        -5.4737585142       -2.4527456151       -8.1040953573
  O         9.0509539911       -4.5557535387        6.1019910210
  O        -7.5167577225        8.6198772807        0.9651749273
  O         1.5485096497        9.7146548431       -4.4122590032
  O         8.1283381971        8.3975239325        2.6360448394
  O        -5.9141250403        8.4910938681        3.0871829674
  O         5.4308058397        7.4953110589       -5.8568540295
  O        -7.9264307464       -4.2908467751       -1.0656013820
  O         8.8577019425       -1.8556363388        5.4065518051
  O         9.3894921852       -0.9963024765       -2.8740200400
  O        -3.3142108158       -1.0661392965       -8.2367132343
  O         8.3234680560        0.2087801157       -6.8469474354
  O        -5.0601549072       -4.7344344455        9.0762576181
  O        -7.2743708067        0.1634145877        9.0580268879
  O        -6.4224724827        7.1001294864       -0.8151125426
  O        -0.1357044155       -6.0474769349        7.2387719003
  O        -6.4884240140        2.5562310299       -5.1849091394
  O        -1.7805043635        8.9746362144        5.6283647857
  O         8.1533484501       -4.0040907266       10.1731764463
  O        -7.9914068325       -5.1601258646        4.8319913647
  O         6.8343729837       -6.1103063458        3.5223064133
  O        -8.7157743188        0.5209140679       -8.1500312380
  O         3.8361972908       -8.4407159375        4.5894596170
  O        -7.5647257846       -1.8713027823       -3.7699742588
  O        -8.6776357801        8.2492819545        3.2686875641
  O        -2.3163367655        7.4917745703       -7.9084276444
  O        -7.0500905504        2.3480154180       10.6723453427
  O        -5.1235160364       -6.4149012285        5.5641878967
  O        -8.8891033492       -6.5959428073        6.8671014460
  O         0.6381254637        8.2658383736       -2.3507279822
  O         3.7165605580        3.8951543076       -6.1472545936
  O        -7.0536334169       -6.1199970329        2.5577788203
  O        -3.7948406762       -6.0886007191       -8.3909132801
  O         7.1631700645       -7.7418467530       -3.5821132889
  O        -7.1553084584       -3.2047740126        8.9375190138
  O         8.8403749142        7.4088241385        7.6156870218
  O        -4.0574474469        3.4218119308       -6.4142533452
  O         4.9542068111       -4.1777357742       -3.7557584178
  O        -6.8242289083        7.2579812862       -5.3747488982
  O        -5.6272950324        4.4560153661        9.6926588835
  O        -1.8957967843       10.4068407157        7.6468549576
  O         5.8646999740        3.7861873867        6.3164449293
  O         4.5125394968        4.7170121743        8.3662261071
  O         9.4626966198        2.8559928700        9.1361822118
  O        -2.5590432552       -5.3179498513        8.4815227472
  O        -7.2637505536        8.1290467700       -7.7390649923
  O         4.6945532005        1.3179861797        9.6777032656
  O         6.2770080408        9.6693676313        8.6130086441
  O        -0.2209218268        5.0446060864       10.1631859856
  O         5.8827922620       -6.0781341709        5.9701037434
  O         4.7380996030       -5.7486086437       -5.8271598224
  O        -3.7419296453        5.5529216119       -7.7660268385
  O         2.6639905627        9.2357287644        9.2611688119
  O         8.4372478994        4.2900399950       -7.9149847794
  O         0.5158594005        6.2111746423       -7.0376724134
  O        -8.8616289054       -0.9349793391       -6.0291387418
  O         9.5024466965        3.2255799089        4.3979657195
  O        -4.8228487523       -4.5229314045       -6.5262137637
  O         4.8233509992       -6.8702867229       -3.4653668461
  O        -8.2827324167        9.5839035196       -5.9107227355
  O        -1.9376677470       10.1224088438       10.3148733762
  O        -6.1712877122        8.6902368689        7.9026088853
  O         3.3959486968       -5.0894950212        9.8818559803
  O        -7.6775986016       -0.6957918548       -1.3997615506
  O        -6.0874493065       -3.9655586375        6.6237577158
  O         0.2174394285       -5.8618749831       -5.5509207827
  O        -6.9799665330       -2.9502619435       -6.1479087032
  O         6.6219737538        1.6295614899        7.8716613701
  O        -8.9169987273        1.6553725813       -5.7193306786
  O         4.1675894786       -3.2971301673       -7.7860266459
  O        -9.7294776255       -3.6059905017        0.7443748988
  O        -8.1580619994        6.0031101396        0.7451116392
  O         4.5876264947        6.0104115673        5.8981698743
  O        -6.6452262337       -8.9876407781       -1.4540397011
  O        -6.9023561395       -8.1177277132        7.9001189373
  O         4.3673171928        8.4178820645        5.3108060107
  O         6.4498367970       -1.6669846185       -7.4486004791
  O         3.3634496890        4.3442559316       -8.6715362873
  O        -1.1808714964        6.6678819791        8.4336540771
  O         6.6336981806       -4.7591491982        8.1390256135
  O        -5.8265150237        1.2146177589        7.1977499551
  O         9.9237819603        5.0297935463       -4.7265794830
  O        -5.6644624893       -4.2508197574        3.9861982131
  O        -7.4287220830       -8.8337740250        2.6976479792
  O         7.6721135285        1.7918201781        5.4251125733
  O         9.5000870433       -1.8995455142        2.8536334165
  O        -0.1189541712        8.7268341643       -7.6423336964
  O         7.3456497948       -7.3689773325        7.6503046527
  O        -7.5057138013        5.7227072206       -2.7350786356
  O         9.1619146003       -3.4832319613       -1.9112091697
  O         6.1364928045        7.1559027709       -3.2237029452
  O         9.0924186974       -5.0705446995       -6.6608614115
  O         5.9251589955       -2.6213799375        9.5036769361
  O         5.8604663164       -9.0364588529        6.1908047100
  O         8.9852298948        4.9520891929        0.5306307290
  O         8.1837049429       -2.7399503310        7.9336223661
  O        -4.8809298914       -0.8109804320        9.0416172300
  O         6.2711774512        3.6103609495       -6.6582889039
  O         6.2422876039        9.7239933769        1.0474586076
  O        -6.3071992353       10.0951460680       10.2950579815
  O         1.9819708182        8.6483746719       -6.6254181569
  O        -7.4325631033       -5.8865852589        8.9273176247
  O         7.2455125141       -0.6492097952        3.5340313882
  O         4.1776656249       -5.8827579582        4.0691291682
  O        -7.1605724911        6.2603161543        7.2315788903
  O        -8.4090156727        3.2570437536        0.0431042991
  O         4.9069376346       -6.7257502294        8.4252498113
  O         9.1453133856       -5.8399632266       -0.7037042039
  O         9.2804166934       -6.6275304654        4.4658767741
  O         6.7381633649       -5.4200874216       -2.2859118381
  O         6.9788037086       -2.6051131159       -2.6996126458
  O        -0.4707103538       -8.0715618146        5.7310712650
  O        10.0920541112        7.1336056448       -6.3858750165
  O         7.2862590413        0.3590358192       10.1210443282
  O         0.5743753179       -8.7371749787        9.9515934022
  O        -2.4243824921       -5.6340078955       -6.2999149544
  O        -2.3271519973        9.6702940318       -6.4265325159
  O        -3.6075077087        5.6410609039        8.8152336856
  O        -7.1240694397       -5.1227883288       -3.6914523240
  O         7.8118621060        6.4894982954       -5.2996329659
  O         2.8528322430       -7.5933576547        9.6602544406
  O        -0.7830278362       -7.6536628771       -7.3033391944
  O         6.6289449665        9.7041287794       -5.3596811922
  O         5.7625999263        9.5318481158        3.5848863968
  O        -0.9022712196       -6.5764910045        9.7693945660
  O        -8.4759786095        8.6176651944        6.6510913650
  O        -0.9009417073       -2.1342533673       10.2955853010
  O        -8.5504023778       -7.5489250112        0.0844931884
  O        -5.3746165752        5.0517523382       -4.9683796059
  O         8.2718530226        3.7471053908        7.0904414685
  O        -5.2344915861        6.9822825142       -3.3172063581
  O        -0.0902270906       -4.2247840081        9.0087358089
  O         8.2564725871       -8.3976836961       -0.3590729038
  O         6.2643239821        9.0021972257       -1.2369112838
  O        -6.2556955089       10.6937194783       -4.1756779171
  O         8.7724485281        8.1972552767        5.1055089537
  O        -3.8048712186        8.0692033622        4.4292364460
  O        -4.1120799351        2.3615991974        5.3946473218
  O        -5.4219109173        9.8302818454       -6.6107540098
  O         8.9811613900       -8.3787714950       -5.3106813988
  O         7.3759992317        7.7479103535        9.7547550215
  O         2.2118441274       -7.8561886939       -6.1505838824
  O        -7.2151639733        8.4379248114       -2.9754157293
  O        -5.9413014974        0.0598078823       -8.1393671385
  O         1.9269485862       -6.7667884479        5.5127679635
  O         6.6564695819       -5.0202197324       -7.4366750016
  O        -8.4432297929        3.2366266596       -3.3817834741
  O        -4.9446877458       -7.6054838823        3.1777208788
  O         8.7745083867       -4.5072363964        3.0638901356
  O         4.0879990861        9.7766901036       -5.8251686158
  O        -8.1168087315       -7.0383856339       -5.5117146578
  O         3.2414325960        1.7598697585       -7.6088751523
  O         6.5840378869        6.0644083064        7.6430816921
  O         5.7553319642        0.8504344703       -7.2759337101
  O         2.3521185882       -5.1732606445       -6.9712975919
  O        10.3688728593       10.0188196478       -2.8893741817
  O        -8.5480759866        4.2044013825        2.5094562028
  O         4.8685005211       -6.9158938433       11.2277921384
  O        -6.4302679796        4.3940946457       -7.2007198700
  O         5.7858266321        9.1979208763       -8.0172404460
  O        -9.1824177784       -7.8166653590        9.2005689908
  O         4.1854094630       -0.8984500200       10.8889808302
  O        -7.9921249926       -3.7513069059        2.6604160145
  O        -3.7360058246       10.3406432218       -4.4737198143
  O         3.8317583320        6.8321948294        9.7405794122
  O        -6.5659606011       -1.3690027925        7.0611044917
  O        -5.3302351256       10.2126473704        5.1158598421
  O         7.4553120737        6.5541480670       -1.0773975381
  O        -6.1688053125        3.7863649186        6.3598950097
  O         0.1642017262        7.6466355078       -5.0393437647
  O         5.8758612388        5.2912650189       -8.7091612949
  O         5.5578237809        5.2031565266       -4.7855739502
  O         9.3217357725        4.9194111526       -2.1201183609
  O        -2.8525261319        6.7448847479        6.5403567673
  O        -1.5697210091       -7.6314214334       -4.8643518346
  O         1.1161911644       -1.8022991804        8.5250605032
  O         1.5302124679       -3.2814896469       10.7506198572
  O         8.0644857588       10.2779829317       10.5825025912
  O        -1.4573838790        4.1642392115       -7.2222738579
  O        -9.2862887946       -8.1135935134       -7.6180983396
  O        -3.0375467301       -8.0165665175        5.1031242051
  O        -7.8754574483        0.7528471526       -3.4943358680
  O         9.2434505640        6.0516662440        3.7073123837
  O        -4.3874509827       10.6251443725        8.7194208166
  O        -3.1821411653        3.4448274238       -9.0553086742
  O        -1.5360703610        6.6678606331        4.2329824778
  O         1.2243226705        3.7389090413       -7.2338565342
  O         8.4651645671        9.9115033733        6.9695705501
  O        -2.9928362358       -3.5515432843       10.3986587743
  O         1.1852017870        7.1245274770        9.3433766146
  O        -6.7807805889       -4.6589424169       -8.2469466383
  O        -8.6748893586       -2.8490996389        6.9460499584
  O        -6.1767173258        7.7946874030        5.5284220190
  O        -3.5699794460       -4.1526781642        5.4679902878
  O        -4.0839289574        3.1456307518        7.8675614233
  O        -8.3130033412        4.6078751665       10.4716030876
  O         7.5311666106       -4.3380548007       -4.5675411754
  O         8.3507013030       -6.5516962431       10.5566925095
  O         8.8661021655        5.4627497133        9.1955192755
  O        -5.8929185228       -7.8009635918        0.8313318020
  O        -8.4906878864        4.1128420528        7.4073197516
  O         5.9500303589       -7.7507847973       -1.1352411283
  O         6.7780715724       -7.3917303690       -6.3429047031
  O         8.7211188835       -6.9102476041        1.7493071585
  O         2.3638002029        6.8835089095        4.7874126414
  O        -9.7505784868       -5.6082126567       -4.1098959703
  O        -6.5152766594       -6.3168754414       -1.1193297663
  O         9.8911394690        7.4201119293       -3.7704830127
  O        -9.3982688429        1.7678885538        6.6250335705
  O         2.5567104420       -5.7524221782       -4.4345182331
  O        -9.4317955730       -3.2187560121       -5.0742361700
  O         9.6027905755        0.4112773507        4.1586071430
  O        -4.7372619604        8.0273558417       -8.3069648998
  O        -3.1649360924        8.2589752660        8.7451331383
  O        10.4532798326        7.7429607260       -1.1471398501
  O         1.3678133025       -8.3295932028        7.5545573283
  O        -8.0203903892       -7.3612921324       -2.8415395860
  O        -8.0351314706        4.9901412436        5.0068143229
  O        -1.2607645324        9.4383649043       -3.7641340007
  O        -4.7306437970       -7.2031375890       -6.1196420671
  O        -4.1754663021        7.2651804056       -5.8183478086
  O         8.3149444638        8.6571546200       -2.5567906224
  O         2.8508439011        7.5052640606        7.3006003272
 Si         3.0864346257       -7.1005225725        4.2966676806
 Si        -6.5969342080       -4.6179121269        9.5001278870
 Si        -3.7713489670        7.0656947067       -7.3706986411
 Si         6.3418713057        1.4872198021        9.4111207520
 Si        -9.5612341061       -4.3639491931       -0.6778468548
 Si        -9.3618876425       -5.7863668376        5.6037447297
 Si         9.2081037060        7.6676208527        3.6401104818
 Si        -7.9115649313        8.0269958752       -6.3052931627
 Si         4.0431119715       -6.5633813995        9.7759214932
 Si        -3.1062352667        4.0450671388       -7.5760937225
 Si        -9.0052101023       -8.3703222408       -6.0255816398
 Si         6.2584210578        6.6348111564       -4.7804514732
 Si         3.4697597786        7.2004793377        5.8783852668
 Si        -7.3038848136        0.7765277233       10.6010333367
 Si         8.1449820319       -5.1907517602       -8.0005531214
 Si         6.2163614702       -6.1847687839        7.5511756314
 Si        -7.3521996030       10.3193762816       -2.8934096348
 Si        -5.0306913611       -4.6817514956        5.5408391921
 Si         4.4203186514        5.2734715826        9.8864742192
 Si        -4.8876631969       -1.0757190713       10.6778433845
 Si        -7.1032133180        7.8251899173        6.8146103050
 Si         2.5052090610        9.9554504747       -5.7383785780
 Si        -5.3581887488        6.6535076212       -4.8759769654
 Si         5.2206541786       -2.2063509960       -8.4391184004
 Si         7.0264767567       -8.9374284115        7.3353713041
 Si        -7.1381937945       -4.7968305270        3.5376656426
 Si         5.2025845972        3.7500027102       -5.4498433899
 Si        -1.6593761961        8.9613372274       -7.6892882920
 Si        -8.1616224622       -2.2414116162       -5.2176613358
 Si         5.3794777572        5.1975070336        7.0369528349
 Si         4.1736742002       -5.6211746197       -4.3204830816
 Si         7.0763011203        2.7164256800        6.6761095938
 Si        -8.8206307688        4.7977080764       -3.1591674080
 Si         9.1676670047       -2.9724913913        6.6402473336
 Si        -6.7941150963       -5.0081123900       -2.0631285729
 Si        -2.2189829795       -2.3566073692       -8.1732264633
 Si        -6.6017412415        7.0583028562       -2.4678380295
 Si         9.4691175102        4.2320682903       10.0881862174
 Si        -8.1611128621       -7.0925226868        8.2187411358
 Si        -2.9584858726        9.8841099606        8.7602485052
 Si         0.4895156024       -2.7397587701        9.6036270525
 Si         8.7638242670       -0.9833699973        4.0305595030
 Si        -5.0772559706        2.6198458933        6.6728746368
 Si        -6.9444893522       -7.6599085330       -0.4481914979
 Si         2.8591114970       -4.2013523771       -8.2203183752
 Si        -5.9717139272       10.1435580705        8.6539098797
 Si        -8.3660572222       -0.6836814238       -2.7927250667
 Si         5.5004614609        9.0915646650       -6.3609477690
 Si        -8.2396696660       -6.3137256865       -4.0693832618
 Si        -7.4277210604        8.9509752818        2.5330900758
 Si        -5.3181826690        8.6543109292        4.5241425365
 Si         0.2773686062        8.7672248419       -3.9073272585
 Si         6.1556748013       -6.9209982663       -2.5781991779
 Si         7.8804490815        6.6065184343        8.6024798287
 Si         8.9963034897       -4.5328679234       -5.0893431662
 Si         7.2386640188       -3.5158304676        8.9692264280
 Si        -2.1140949279       10.2047058143       -4.8880047421
 Si        -4.6266447225       -7.7532525157        4.7642591311
 Si        -0.6731056370       -7.9257798825       10.5455270372
 Si        -6.9074704755        3.9534896622       -8.7086799470
 Si         1.8117134926       -6.2226513078       -5.8574965979
 Si        -5.9198586150        9.0374922538       -7.9276389493
 Si         9.4152067088        6.5256436293       -4.9892666963
 Si        -7.3979035159        4.7973187331        6.4818555856
 Si        -0.9028710715       -5.5234549681        8.5350375198
 Si         9.2689748391        1.7628279682        5.0436804812
 Si         9.2466442280       -7.2171621501        0.2223685041
 Si        -5.0687462848       10.7631950620       -5.3350034480
 Si         0.2038758337        5.9126291082        8.8474999929
 Si        -2.7527987377        6.7859243041        8.1540810684
 Si         6.8270401565        4.0784505737       -8.1007903315
 Si         5.7243626882       -6.2321093572       -6.9481211659
 Si         2.8184001539        3.3658537775       -7.4100676631
 Si        -1.1939261723       -6.6065757349       -6.0024287885
 Si        -5.6227889870        3.7510609241       -5.9325268045
 Si         7.0445767484        7.8608151593       -2.0405468710
 Si         8.3996769350       -6.0920028278        3.1854382686
 Si         6.8029086024        9.2535875127       10.1024376393
 Si        -6.0273100128       -3.6729821271       -7.1879387451
 Si        -9.4634890101        0.4280608283       -6.6675861454
 Si         0.6532307103       -7.2073461273        6.4704392306
 Si         8.4075079932       -2.0884053181       -2.0830111344
 Si        -4.2029541408        4.1254783750        9.2250969486
 Si         4.4107249907        0.7351659306       -8.1883715117
 Si         0.7261333184        7.6962743595       -6.6282211671
 Si        -7.0950520595       -2.8967430472        7.3523400076
 Si        -2.5119049712        7.5894710979        5.1588208181
 Si         4.9890290495        9.8333422982        4.9470676420
 Si        -4.0041088793       -5.8987376986       -6.7814453821
 Si         7.3459309118       -8.2196548724       -5.1156461009
 Si         1.8921997383       10.6842483779        8.9825406691
 Si         6.7386954857       10.3427488946       -0.4098287392
 Si         7.0014324770       -0.0837598252       -7.6677355635
 Si        -0.0570235773        4.7244359185       -7.7137117516
 Si        -9.6069014424       -3.4333369931        2.3444143040
 Si        -3.5760723768       -4.9398022398        9.7115064699
 Si        -7.9449598746        2.0544036992       -4.4219221471
 Si        -7.8029212094        7.3596548889       -0.0166608695
 Si        -6.3646102084       -7.5878907226        2.3540131234
 Si         6.4399510404        8.6681456550        2.3733599073
 Si        -1.8935438827       10.5209625258        5.9453031097
 Si         8.2805841485        5.1562510187       -0.8800285930
 Si         5.6913575470       -5.4221426274        4.4895188199
 Si         9.1746287629       -7.9308495628       10.4892995951
 Si        -9.6957036416        3.0393727017        7.5578136308
 Si        -9.2034103062        4.6342908551        3.9032797187
 Si        -6.0269225905       -0.1767224285        8.0015620896
 Si         9.2904955543        8.5164940309        6.6327129975
 Si         6.5761771260       -4.1170458737       -3.2640366777
 Si         9.9392998961        8.5204364840       -2.4994646456
 Si        -8.8095862627        4.5142732819        0.9498935727
 Si         2.6757974312        7.6573954807        8.9177510755
 Se        -2.4465328040       -0.6888746278        3.0757111747
 Se        -1.5412465063       -2.7069382244       -6.0915899739
 Se        -4.8678064355       -3.8729604490       -1.5845104380
 Se        -1.9640594645       -4.8470719595        1.8779872129
 Se         1.3881037616       -4.4968640956       -1.0463763695
 Se         1.7798310062       -7.0136941013        2.4102872090
 Se        -6.4290185314       -0.6367958294        1.5635328345
 Se        -4.1382930884        0.0230128552       -4.8519768706
 Se        -4.7045122188        2.1641781922       -0.3950291918
 Se        -1.9677505822        0.3238036514        7.7152084258
 Se         3.7966970004        0.1469437260       -1.2299506455
 Se        -2.3315011277       -1.4472446091       -1.0852555115
 Se         1.2176081092       -0.9938577910        0.8832696449
 Se         0.8573946330       -3.0855895483        4.8092301505
 Se         4.9782299018       -3.8465658903        0.4004861469
 Se         5.8138006178       -3.2427995854        4.5981940817
 Se        -1.7517614395        5.0876701843       -2.3573126063
 Se        -3.9225489455        5.4628014918        1.7966971708
 Se        -0.8062834373        3.2090110121        4.4328063938
 Se         0.1507190545        1.1320397089       -3.5085679482
 Se        -0.7045689397        2.1960194568        0.5816872910
 Se         0.8981497840        5.8571684812        1.6857930650
 Se         1.0645676489        4.4420888896        7.4236551298
 Se         5.1589658163        1.7662255604       -4.3609258685
 Se         3.6444178453        3.1616968789        2.3791775503
 Se         1.5929903531        0.8226041599        5.0703798789
 Se         3.7349789054       -0.0569698332        6.0424787127
 Se         7.9551407174       -0.9944475469       -0.1728415128
 Se        -2.0057357653        9.0247776687        0.5910279197
 Se         2.8803774402        9.1331858810        0.6603637902
 Se         2.8425843575        4.8162223698       -1.9734418088
 Se         5.5086555329        6.7143525360        2.2558079851
 Se         6.6144725812        3.6472977395       -1.3486258455
 Cd        -6.6272911760       -2.3417922737       -0.3642579383
 Cd        -4.3601696579       -2.3773162551       -3.7842110867
 Cd        -3.1111285238       -3.1541700605        3.4645416058
 Cd        -2.7953028122        0.4338732556        5.3396973983
 Cd         2.9999843972       -2.3608920635       -0.5508928375
 Cd        -0.6262011335       -3.2255010057        0.1525941638
 Cd        -7.2316262945        1.5429389904        0.3992965139
 Cd         1.0744473908        3.3087709376        2.4067734808
 Cd        -4.0198282185       -0.3773401341        0.5361030207
 Cd        -0.8002226674        2.5891463131        6.9796993955
 Cd        -1.4669579855       -0.1868515352       -4.9450200723
 Cd         5.3067529993        0.2021565649        3.9020320507
 Cd         0.2532265922       -4.9628416141        3.1569026869
 Cd         3.3690174725       -2.7389746333        5.4191920702
 Cd         4.0707917526        0.6480915271        1.3620784072
 Cd         2.9266024685       -5.0583424374        1.1107043250
 Cd        -1.4433744570        7.4214782974       -1.4188398582
 Cd        -2.7611510371        3.8648662343        0.0071266888
 Cd        -3.3091202068        3.8573070839        3.7809278388
 Cd        -4.6358617657        1.1095539675       -2.6193744580
 Cd         0.4539310987        4.0865667548       -0.9774726976
 Cd        -0.2780381730        0.0480287356       -1.1089634942
 Cd         0.1945417273       -0.9476483016        6.7384834125
 Cd         2.7637454861        1.5959823746       -3.3815918176
 Cd         6.3410821373        0.9633863686       -1.2802749983
 Cd         0.5316826010        5.6374736955        4.8019386055
 Cd         5.9137175479       -1.8807970875        2.0110567736
 Cd         0.3342974608       -0.9200067982        3.2425091590
 Cd         2.4711429760        7.3498047353       -1.4076917008
 Cd         0.4368211496        9.5891747306        0.7570613833
 Cd         3.0036589404        7.2676534162        2.6225806200
 Cd        -1.6481774541        6.8151158749        1.9404006916
 Cd         4.4439093217        4.2112765079        0.0686728009
