402
 i =     6600, time =    13200.000, E =     -5882.4195155266
  O         6.5247346837        1.7190628490       10.6117967094
  O        -5.4354932846       -3.7194261630       -7.6593458263
  O         9.1345109634       -5.8176280481        6.6791966894
  O        -7.6730304223        7.3086132872        1.6401532000
  O         1.6178787543        8.5376086369       -3.8681424774
  O         8.0634789788        6.9950353075        3.1321447495
  O        -6.2267631896        7.2434744022        3.7887188810
  O         5.2288363489        6.2305306271       -5.1226726039
  O        -7.8771423217       -5.5408068078       -0.6918924950
  O         8.7798538908       -3.2266008581        5.8218028567
  O         9.3547149735       -2.2062304386       -2.5816246822
  O        -3.2874444744       -2.3427311511       -7.7589302700
  O         8.4619313893       -0.9475533255       -6.4241057866
  O        -4.9107835154       -6.2033093116        9.6564776284
  O        -7.2915417385       -0.9686274753        9.4461329413
  O        -6.4604527885        6.2862610409       -0.4000476038
  O        -0.1376360034       -7.2527996010        7.5829984251
  O        -6.4870145490        1.4368705043       -4.6254537734
  O        -1.8560960381        7.9569978393        6.2052215158
  O         8.2128578649       -5.1739969045       10.7056357341
  O        -8.0674646739       -6.4296922063        5.3717611291
  O         6.6660569682       -7.0191743115        3.7943769539
  O        -8.5593088098       -0.7404617178       -7.5835438804
  O         3.9423008428       -9.6700346827        5.1154166474
  O        -7.6275534718       -2.9621409187       -3.3703675889
  O        -8.7675294607        6.9947050159        4.0739039949
  O        -3.1826815748        7.0891867877       -7.5454765061
  O        -6.9734006534        1.2306979621       10.8849021632
  O        -5.0704403019       -7.5584852917        6.2768679689
  O        -8.8839048070       -7.9859651334        7.3100927970
  O         0.4402564433        6.8149972833       -2.0475678229
  O         3.4626833008        2.4537511949       -5.6509408835
  O        -7.2304428703       -7.5006246978        2.9923613576
  O        -3.6865804914       -7.4668735350       -7.7298961557
  O         7.1567373573       -8.9784110575       -3.2189019371
  O        -6.9753784587       -4.5547288850        9.3387803230
  O         9.0510309157        6.0643435952        8.2691419282
  O        -4.0085376565        2.1452838658       -6.1029443862
  O         4.8919550143       -5.2879495414       -3.2081492755
  O        -6.9153102259        6.0254931946       -4.9624804876
  O        -5.7492613707        3.4500776923       10.0600560119
  O        -2.0186853249        9.6433166447        8.1341710883
  O         5.9575475923        2.6241066951        6.8088625317
  O         4.7550568724        3.4200287084        9.0358733039
  O         9.6467623201        1.6249712337        9.8114877444
  O        -2.4490710534       -6.8749763050        9.2955982739
  O        -7.8279317318        7.2962795468       -7.1093553401
  O         4.8317764380       -0.0297098239        9.8856247704
  O         6.2504145287        8.4620484333        9.3473916314
  O        -0.2433574963        3.5970327872       10.4136488648
  O         6.0364859914       -7.2531988315        6.4441817375
  O         4.8098191980       -6.8924470615       -5.3133167909
  O        -3.5355421357        4.5385637730       -7.2905518749
  O         2.6590115802        7.8683470349        9.7098049896
  O         8.3675969788        2.7778668766       -7.4147811936
  O         0.6209963442        4.7960402938       -6.6808968196
  O        -8.6858752927       -2.1761695741       -5.6004507552
  O         9.6180263402        1.8854455811        4.7308283449
  O        -4.9360942149       -5.7648427230       -6.0325840447
  O         4.7589277379       -7.9693734153       -2.8289125582
  O        -8.5154525842        8.4648669200       -5.1137981742
  O        -1.9251130944        9.0702870326       10.6379500350
  O        -6.3869495617        7.2843042883        8.6770294353
  O         3.2210525309       -6.3334016251       10.2378554510
  O        -8.0357999668       -1.9799953574       -0.8458219966
  O        -6.1884428802       -5.0820822788        6.8776210219
  O         0.2084473481       -7.0608038552       -5.1347746887
  O        -7.0207846262       -4.2113114056       -5.6787935429
  O         6.7131062407        0.3702831924        8.2934783420
  O        -8.9667170614        0.4852880379       -5.1733055100
  O         4.0973403992       -4.5234824761       -7.3986057744
  O        -9.5955835582       -4.4460270777        1.1032755226
  O        -8.0133099844        4.6942385749        0.9318018619
  O         4.5322942260        4.7172837123        6.6294034307
  O        -6.8124491578      -10.2141493621       -0.9581253881
  O        -6.8729724088       -9.5160167343        8.3305979261
  O         4.5633014938        7.1439648688        5.8287043962
  O         6.4662385509       -2.8113595214       -6.9643746238
  O         3.3503094252        3.1966836681       -8.1571565246
  O        -1.1171376685        4.9692520387        8.3243325307
  O         6.7142059640       -5.9088491588        8.7398756234
  O        -5.4059638661       -0.1108926010        7.6924281417
  O         9.9506404016        3.9861863016       -3.9670962921
  O        -5.7066475133       -5.8399846328        4.4289498102
  O        -7.6087505318      -10.0199030067        3.4072460224
  O         7.5702095931        0.6352760625        5.8622507705
  O         9.7359572304       -2.9808026235        3.2877931647
  O        -0.5976000928        6.9115172710       -7.4598612019
  O         7.1732992245       -8.5706728193        8.4048392015
  O        -7.5873228423        4.6076692468       -2.1981354745
  O         9.0855255748       -4.5430326476       -1.3886308589
  O         6.1520894257        5.9797886111       -2.5573851021
  O         9.0250626746       -6.0640984513       -6.3313523125
  O         5.9872932297       -3.7680917450       10.0412505358
  O         5.9151778462      -10.1846028264        6.8023411657
  O         8.8489075667        3.5668948665        1.1685286593
  O         8.2725603225       -3.8651205413        8.3248293031
  O        -4.8608372848       -1.9907040613        9.5988797380
  O         6.0270174401        2.2046243516       -6.0729400006
  O         6.6228732177        8.7930390343        1.6899680344
  O        -6.4613513099        8.8880375807       10.7432826829
  O         1.6321561423        7.6359244344       -6.4651921825
  O        -7.3766518998       -7.1680543379        9.3500497705
  O         7.3507631234       -1.9935901341        3.8474726116
  O         4.1424905053       -7.0945644492        4.6503216349
  O        -7.1832559627        5.0035959439        7.8062186951
  O        -8.3038113598        2.0164207306        0.4816037723
  O         4.7892149312       -7.6603114472        8.8608496805
  O         9.2067408836       -6.9278461265       -0.0596536220
  O         9.1092471261       -7.8183373079        4.9496590719
  O         6.7576105854       -6.6208305182       -1.8820028028
  O         6.9677355154       -3.7956133451       -2.4132713424
  O        -0.3281427827       -9.2834746963        6.0476611339
  O         9.8833716534        5.9675756199       -5.6414514394
  O         7.3221948892       -0.9253966368       10.5536578854
  O         0.5677230050      -10.2028680830       10.5653298718
  O        -2.5380821302       -6.7704428706       -5.4870687624
  O        -1.7197938495        8.7390925332       -6.0642696295
  O        -3.7252084291        4.7082106335        9.1910146977
  O        -7.1286624811       -6.4442344197       -3.2510965164
  O         7.5476594722        5.0819288018       -4.5655366903
  O         2.8414512077       -8.9343784131       10.1956814386
  O        -0.9561338259       -8.5066906120       -6.9840674451
  O         6.7466459925        8.3204764690       -4.8474609756
  O         6.1493837055        8.4046969458        4.1889753769
  O        -0.2115041983       -7.9255134646       10.0182512148
  O        -8.5153501821        7.3333955187        7.2297727475
  O        -0.8978494014       -3.3361042928       10.9805725933
  O        -8.5305733422       -8.8415897053        0.8195808229
  O        -5.4220123370        3.8168352107       -4.5174988486
  O         8.2795184005        2.4156423056        7.7465022856
  O        -5.2829458003        5.8128570803       -2.8823546118
  O        -0.2209714452       -5.3618661779        9.3764289291
  O         8.3710980686       -9.5572787691        0.0985645170
  O         5.8727489531        7.7355225297       -0.4345517120
  O        -6.2462186603        9.3834876947       -3.6127160370
  O         8.6729494897        6.8729196353        5.7266579843
  O        -3.8836278750        7.1982876711        4.7583751324
  O        -4.2905058575        1.2411226309        5.7460461268
  O        -5.6738759768        8.6075085323       -6.1139819411
  O         8.8780545685       -9.3211508539       -5.1307047532
  O         7.4157730530        6.4634825720       10.3525881711
  O         1.8743302245       -9.0255542311       -5.7137293948
  O        -7.3372769616        7.3619855952       -2.7268948696
  O        -5.8204588609       -1.0947554113       -7.7161828290
  O         2.0775351222       -7.9241410845        6.0701410204
  O         6.6043212414       -6.3197474788       -7.1605839263
  O        -8.4158004719        2.0718897256       -2.9266888467
  O        -5.0863739396       -8.7017244138        3.8598058246
  O         8.8653366123       -5.6259524159        3.4027747338
  O         3.9259171897        8.4926383236       -5.3737950285
  O        -8.0202807945       -8.2452305512       -5.1992920267
  O         3.1254954259        0.4725963774       -7.4465043544
  O         6.6108261422        4.9521577417        8.2765867939
  O         5.7551406397       -0.3500804877       -6.8712006977
  O         2.3131410305       -6.5969707559       -6.7067667720
  O        10.1865523608        8.8136320149       -2.2462391818
  O        -8.5173548024        3.0353439786        2.8741443125
  O         4.8726824099       -8.0809746755       11.6017964896
  O        -6.4921713056        3.0803041210       -6.7603593638
  O         5.9033025612        7.7551394213       -7.3311682250
  O        -9.2186419231       -9.2477953803        9.4570215180
  O         4.1366815380       -2.0689928025       11.3133171628
  O        -7.9719932118       -5.0892875252        3.1390689128
  O        -3.7236503167        8.8056341821       -4.2852481366
  O         3.8956381293        5.5609268075       10.2267214152
  O        -6.4314007665       -2.4974203596        7.5543800980
  O        -5.3579538552        9.0973301730        5.9014896103
  O         7.3590823591        5.4388075358       -0.3111040802
  O        -6.1812840505        2.6027784144        6.9663182565
  O         0.3582328780        6.3302779339       -4.6398537702
  O         5.9132329155        4.0859895025       -7.9588082255
  O         5.1884174066        3.8502695469       -4.0878591465
  O         9.3874089690        3.7647263994       -1.4070945465
  O        -3.0801006526        5.6788713151        6.8059308765
  O        -1.4994896642       -8.8463181430       -4.3016564427
  O         0.9571873563       -2.9739307135        8.9941641681
  O         1.6173400462       -4.4129104510       11.2833186639
  O         8.1685380021        8.9078699423       11.0660669962
  O        -1.4256608445        3.0416710167       -6.7743392771
  O        -9.0828318752       -9.4825635217       -7.3402013754
  O        -2.9514074787       -9.0679367701        5.6390414154
  O        -7.8538336641       -0.5011757172       -3.0448375010
  O         9.1909775945        4.7287924314        4.1354480071
  O        -4.4363376860        9.0168381640        9.0299167539
  O        -3.2130609674        2.4880503665       -8.6239506500
  O        -1.5094477141        5.8897538395        4.5426665013
  O         1.1630998863        2.3348315448       -6.9736018297
  O         8.5054932273        8.6042243682        7.8008409210
  O        -3.0893034003       -4.9838519859       11.2280390386
  O         1.2868162606        5.5710542323        9.5738188764
  O        -6.8762270493       -5.9693589263       -7.7615592527
  O        -8.5150452928       -3.9907003377        7.2149520841
  O        -6.1418680466        6.5256445659        6.1712302374
  O        -3.6860335487       -5.1687871547        6.0813885928
  O        -3.9753409738        2.1399957003        8.3212208456
  O        -8.3912659782        3.5019460158       11.0389036754
  O         7.4512441352       -5.5370437613       -4.2352365173
  O         8.6379343779       -7.7603085954       11.0928397059
  O         8.7223173167        4.1558167642        9.8579217821
  O        -5.9834787143       -9.2465871191        1.3587153874
  O        -8.5803343223        2.8388554164        7.9396519825
  O         6.0747503653       -8.9875131824       -0.7309062279
  O         6.5776555469       -8.7238998547       -5.9672600504
  O         8.7539350990       -8.0541475020        2.2774083596
  O         2.4540479122        5.6790959861        5.0611721707
  O        -9.7190541100       -6.8939865016       -3.8259035584
  O        -6.4186760600       -7.5687043725       -0.6169459114
  O         9.3323144432        6.3786331875       -3.0162930440
  O        -9.4967013291        0.5056735468        7.1807723128
  O         2.6234410354       -6.8879557177       -4.0227937822
  O        -9.4368423051       -4.4836928812       -4.4874607743
  O         9.5695486004       -0.8145092511        4.8776983460
  O        -5.5414134908        6.4313157677       -7.6615312090
  O        -2.6210435651        7.0448517968        8.9582248058
  O        10.2681378785        6.5805453760       -0.6029509414
  O         1.4027798772       -9.6763045876        8.0581951756
  O        -8.0600012460       -8.6400586983       -2.5726225238
  O        -8.1120493028        3.8154260455        5.5453307473
  O        -1.2673096074        8.1508096848       -3.4687246142
  O        -4.7187920239       -8.4782386335       -5.5337588109
  O        -4.3612135722        6.1316582379       -5.3814292072
  O         7.9982786301        7.7954549852       -1.4828614250
  O         2.8954862202        6.3253659215        7.6872902229
 Si         3.1182954881       -8.3102075404        4.8403686599
 Si        -6.5021971871       -5.9701354288        9.9791067697
 Si        -4.2062919368        5.9373689630       -6.9864891744
 Si         6.4087462902        0.3106114440        9.8661562734
 Si        -9.5113262246       -5.4485253187       -0.2680237070
 Si        -9.3610461678       -7.0357866432        6.1093738823
 Si         9.1211997337        6.3111945125        4.2678564407
 Si        -8.1341267261        6.8998993241       -5.5878531766
 Si         4.0064892656       -7.7300099778       10.2811983781
 Si        -3.0213401952        3.0303108954       -7.1191431942
 Si        -9.0374172022       -9.4898412655       -5.7119904647
 Si         6.0221593305        5.2395299260       -4.0611942594
 Si         3.5359972592        5.8882961898        6.2271259920
 Si        -7.1788107086       -0.3690970880       11.0127177618
 Si         8.1660076531       -6.3718481378       -7.6416193617
 Si         6.1913124105       -7.3004980383        8.0924917434
 Si        -7.5171173198        9.0396925184       -2.5047535936
 Si        -5.0939692942       -5.8997529583        6.0012517160
 Si         4.5129686578        4.0579031264       10.4930911480
 Si        -4.8325137278       -2.3076972348       11.1744507348
 Si        -7.1060505248        6.5478723239        7.4852292154
 Si         2.2934310635        8.7711563718       -5.3899816522
 Si        -5.5082492212        5.4253316500       -4.4004756827
 Si         5.2170931743       -3.3383697203       -7.9761832119
 Si         6.9723358269      -10.1658111997        8.0541051820
 Si        -7.1767217541       -6.2199209388        3.9520778544
 Si         4.9493841003        2.4178496037       -4.8834711389
 Si        -1.8656831924        7.9078348238       -7.4146796825
 Si        -8.1215092716       -3.5183539995       -4.7613411992
 Si         5.4679254504        3.9328516860        7.6705690740
 Si         4.2384505626       -6.7662175449       -3.7569996973
 Si         7.0597963663        1.5077136437        7.1859444691
 Si        -8.8062157713        3.5887456865       -2.5301354125
 Si         9.2833602455       -4.2142467934        6.9937899680
 Si        -6.7485169662       -6.2802060785       -1.6140319353
 Si        -2.2357313797       -3.5887770721       -7.5913406215
 Si        -6.6923460218        6.0324428952       -2.0235359859
 Si         9.4506318183        2.9574273253       10.6334362972
 Si        -8.0507223390       -8.4288804869        8.6322150082
 Si        -2.8551238223        8.7145741652        9.1423684716
 Si         0.4963098085       -3.9626783028       10.1276519139
 Si         8.7944042039       -2.2674531638        4.4674928930
 Si        -4.9813850727        1.4359494692        7.1711725657
 Si        -7.0161851962       -8.9750363812        0.0665798189
 Si         2.8304281282       -5.4253269338       -7.8226608100
 Si        -6.0483625065        8.7325191889        9.1516938140
 Si        -8.3978104503       -1.8778034802       -2.3982134866
 Si         5.4420316669        7.7760843606       -5.7255224964
 Si        -8.2164481212       -7.5804605762       -3.7098379394
 Si        -7.6140122609        7.7154633941        3.1944916122
 Si        -5.3729883539        7.5596071738        5.1780826595
 Si         0.2591214732        7.5748949236       -3.4685690490
 Si         6.2340046694       -8.1591435068       -2.1376218328
 Si         7.9078975960        5.4224821249        9.2181760491
 Si         9.0076979522       -5.7590902050       -4.7422768051
 Si         7.3112974702       -4.6356897750        9.4078056759
 Si        -2.1904804181        9.0648811598       -4.4808727039
 Si        -4.5575529708       -8.8512290349        5.4292515929
 Si        -0.5080654530       -9.1246852263       10.9613705035
 Si        -6.8980212066        2.8663292273       -8.2686399677
 Si         1.7313476877       -7.4214349966       -5.4134521180
 Si        -6.3551707342        7.8543962109       -7.3809802265
 Si         9.1104165975        5.3948903286       -4.2979930655
 Si        -7.4971453337        3.5871916178        7.0661046017
 Si        -0.8010837440       -6.7769215099        9.0176889803
 Si         9.1838578816        0.5578946574        5.6121340041
 Si         9.2695422758       -8.3714798794        0.7733917283
 Si        -5.1848260479        9.4529420837       -4.7821276234
 Si         0.2560863935        4.4021105582        9.0426393184
 Si        -2.6229931978        5.6046113060        8.3432897998
 Si         6.7334161108        2.7166876254       -7.4843611178
 Si         5.6899801028       -7.4294318324       -6.4866873449
 Si         2.8054739754        2.1068276893       -7.0551153194
 Si        -1.2132285031       -7.7767067453       -5.4891670373
 Si        -5.5942635811        2.4848303299       -5.5142451864
 Si         6.7592018523        6.7086733386       -1.2400336656
 Si         8.2871066405       -7.1644081758        3.5987574999
 Si         6.9050410937        7.9874563270       10.7460131886
 Si        -6.0625818012       -4.9030367412       -6.7704390885
 Si        -9.2850256299       -0.7571474450       -6.1668938707
 Si         0.8302693048       -8.5726528988        6.9567691190
 Si         8.3168212387       -3.1294747814       -1.6805555151
 Si        -4.1391400194        3.1890457757        9.6169553037
 Si         4.4501426623       -0.4684987045       -7.8741264407
 Si         0.4813746532        6.4239709894       -6.2674429290
 Si        -7.0588016700       -3.9976779116        7.7448733838
 Si        -2.5497668948        6.6168164277        5.4717627715
 Si         5.1713681802        8.5723078933        5.4804001264
 Si        -4.0230628334       -7.1795825091       -6.1979186216
 Si         7.3404097714       -9.5273211034       -4.7545580756
 Si         1.9132866713        9.2879500877        9.5964211924
 Si         6.8232628138        9.1452662441        0.0217717620
 Si         7.1203148534       -1.2942257798       -7.2699311331
 Si         0.0868428848        3.4601737300       -7.3962100714
 Si        -9.4153942327       -4.5469373936        2.7067539819
 Si        -3.4872166377       -6.3478888919       10.3851598595
 Si        -7.9622839947        0.8775431231       -3.9291540613
 Si        -7.8361077256        6.2303637906        0.4876128649
 Si        -6.4305914267       -8.8896042416        2.8766265215
 Si         6.5534703878        7.6014217702        2.8330696256
 Si        -1.8475427355        9.4950834764        6.4689008727
 Si         8.1752797156        4.0263343229       -0.2656831856
 Si         5.6291161497       -6.5597106559        5.0072697892
 Si         9.2501410707       -9.2272311101       10.8707421689
 Si        -9.7036681490        1.7414788035        8.1888062408
 Si        -9.1479434583        3.3488973961        4.3071918533
 Si        -5.9827470114       -1.3488950210        8.6121917418
 Si         9.2264482301        7.2668784107        7.1920675544
 Si         6.5536203770       -5.2974511552       -2.8556877449
 Si         9.5647197111        7.4457391554       -1.7972373631
 Si        -8.8338985692        3.3198793313        1.2454960694
 Si         2.7782011880        6.3088442980        9.3227872663
 Se        -2.3876792184       -1.9417730922        3.9262697554
 Se        -1.6116754131       -3.9890114051       -5.3333150286
 Se        -4.8216658325       -5.1174472822       -1.3022097189
 Se        -1.6954787602       -5.9584770096        2.3510783032
 Se         1.4935531706       -5.5886881626       -0.7103698397
 Se         1.8203302169       -8.3136415075        2.9659564593
 Se        -6.2214733499       -1.8729093768        2.0777441182
 Se        -4.0112390063       -1.3375588153       -4.6580373085
 Se        -4.7890916881        0.6232087550       -0.0944859413
 Se        -1.8423058396       -0.8134284017        8.2276166883
 Se         3.9021219015       -1.0189563510       -0.6412809772
 Se        -2.3922727418       -2.6852097279       -0.5593880719
 Se         1.3631906886       -2.2438866877        1.5793580886
 Se         0.7792870577       -4.4670546073        5.6050647516
 Se         5.3006330621       -5.0618341346        0.7547211520
 Se         5.5742053872       -4.3378855068        5.3107948450
 Se        -2.2401284500        3.7175439943       -1.9468952833
 Se        -4.2793266867        4.3935881358        2.3260133214
 Se        -1.0776603195        2.1206345132        4.6773617072
 Se         0.1138362234       -0.0271220807       -2.8465778690
 Se        -0.8813955003        1.3855459664        0.9129811830
 Se         0.6900172834        4.7941045256        2.0251110839
 Se         1.3454386189        3.0743183480        7.4318350277
 Se         5.0040368398        0.3767168690       -3.8188409771
 Se         3.5362635782        2.1621168342        2.9799582140
 Se         1.4685769311       -0.4899846810        5.5543050458
 Se         3.5026055223       -1.1801200617        6.5949279916
 Se         7.9291985337       -1.7660707072        0.0319154343
 Se        -2.2082789719        7.7673467244        0.7514847422
 Se         2.7653852135        8.0101716660        0.7445640997
 Se         2.6092915306        3.7170345621       -1.5708647291
 Se         5.3951070244        5.6544243512        2.5565847031
 Se         6.4006691354        2.6305968273       -0.9512084111
 Cd        -6.3913403147       -3.3470790495       -0.0446822063
 Cd        -3.9754065302       -3.9866173967       -3.6664499770
 Cd        -2.9614359540       -4.6843968945        4.1962725369
 Cd        -3.1593189479       -0.7169680214        6.1087681744
 Cd         3.3228131208       -3.6493345429       -0.5604185930
 Cd        -0.3967928102       -4.3707133142        0.7205282786
 Cd        -7.5899659401        0.0274913647        0.7047092927
 Cd         1.0342451320        1.9356486280        2.6590119732
 Cd        -3.5740398592       -1.2329393425        1.5127541443
 Cd        -0.5125955772        1.1115110096        7.0639667984
 Cd        -1.3345768699       -1.5033851651       -4.3223810073
 Cd         5.1746706507       -1.0450959554        4.3896458620
 Cd         0.2464083140       -6.4760382297        3.9458483505
 Cd         3.1426590478       -3.7713289026        5.8530660953
 Cd         3.7813968209       -0.4985481345        2.2013642181
 Cd         3.0928471194       -6.3920552202        1.2034667750
 Cd        -1.7947373812        6.2108345266       -1.3367536520
 Cd        -3.7047758582        3.0013966706        0.1381781399
 Cd        -3.6248734165        2.6928845767        4.1773778108
 Cd        -4.1696519397       -0.2915824649       -2.3439581406
 Cd         0.0140695498        3.1218518089       -0.8837215540
 Cd        -0.3059658913       -0.9052584992       -0.3059089400
 Cd        -0.0193805874       -2.3052026124        7.2627959172
 Cd         2.7144443065        0.2615363995       -2.6502044306
 Cd         6.4050834640        0.0112341175       -1.2365533134
 Cd         0.5530407776        4.6376579233        5.0202810448
 Cd         6.2169367180       -2.8334090152        2.1726160264
 Cd         0.2626782750       -2.3267254760        3.9075101742
 Cd         2.2774338954        6.2382948391       -0.9356352011
 Cd         0.3436022584        8.3749053368        0.8100378157
 Cd         2.8358127460        6.1414617206        2.7773392663
 Cd        -1.8583153161        5.5647861415        2.2999690637
 Cd         4.2781034490        3.2655810010        0.5558436849
