402
 i =     9800, time =    19600.000, E =     -5882.4296508642
  O         6.5920229303        3.1066648866       10.0467724126
  O        -5.2956805337       -2.2491045445       -8.0914642127
  O         9.0096718875       -4.5121960310        6.2659880673
  O        -7.6951781890        8.4271093059        1.0224179629
  O         1.5549661266        9.8491748102       -4.4858724393
  O         8.2205953887        8.5180860876        2.5257519098
  O        -5.9734403383        8.8223310567        3.0670059889
  O         5.3709989960        7.6524273674       -5.8594096106
  O        -7.8972395986       -3.9224641521       -1.4699342239
  O         8.8094304787       -1.9965306191        5.1398028896
  O         9.4915006029       -0.6846676257       -2.9883630223
  O        -3.2418892918       -0.9595634338       -8.4838562167
  O         8.5290209484        0.3471406661       -7.0443781532
  O        -4.8962239360       -4.7180326716        9.1304720133
  O        -7.2437519448        0.2768812770        8.8520985459
  O        -6.3411829526        7.4087473985       -1.0067112050
  O         0.0843921961       -5.9055254222        7.2614499141
  O        -6.2413216195        2.7365101578       -5.4102012438
  O        -1.7176335993        9.3675650016        5.4747343896
  O         8.4050503902       -3.7266695340       10.0275172934
  O        -8.1151789720       -4.9713313769        4.7884702246
  O         6.7755965591       -5.4569086604        3.3422043709
  O        -8.5491904774        0.7927462150       -8.2749676011
  O         4.0471927496       -8.4643894941        4.5627394600
  O        -7.5375383352       -1.5320578550       -3.9658333453
  O        -8.6332740274        8.3017953480        3.4252570073
  O        -3.2301484158        8.6703550829       -8.1255286085
  O        -6.9631045388        2.5558206961       10.2134264821
  O        -5.1814225006       -6.2474859199        5.5518801147
  O        -8.8654802948       -6.6913234663        6.6745450137
  O         0.5158965489        8.3352381930       -2.5377606748
  O         3.5201474022        4.0162153364       -6.1206213855
  O        -7.2815243894       -6.1018383741        2.7232312854
  O        -3.6917177503       -5.9419173703       -8.3487583193
  O         7.0055206593       -7.5008325562       -3.7002552527
  O        -6.9269928478       -3.0628302677        8.8029122389
  O         8.6592380505        7.2895772034        7.3888824722
  O        -3.8282066519        3.7147658300       -6.5681437138
  O         4.9188448236       -3.8548188075       -3.9300199663
  O        -6.8703423342        7.5502539212       -5.6542491615
  O        -5.9762922372        4.8605270374        9.4045556222
  O        -1.9230077853       10.9369738758        7.5359785862
  O         5.6831805320        3.8789443779        6.3322095134
  O         4.4426544620        4.6528325616        8.5085930137
  O         9.4385703846        3.0571376259        9.1881597765
  O        -2.4587298077       -5.4260462946        8.5186006568
  O        -7.8080274709        8.7659888088       -7.8215754601
  O         4.7273100008        1.3228511310        9.5493343211
  O         6.1911408808        9.8367473823        8.6396759512
  O         0.0383601887        4.7201241940        9.9965046541
  O         5.9721079262       -5.7658251278        5.9141784956
  O         4.7542155124       -5.5936523246       -5.9702014142
  O        -3.3102828638        6.0844466781       -7.8644958639
  O         2.3972261104        9.1373482535        9.4403029273
  O         8.2600582058        4.5081545038       -7.9559730569
  O         0.5511113737        6.2414762882       -7.3462834759
  O        -8.6040361989       -0.7675813363       -6.3386833435
  O         9.4810104549        3.3160210765        4.1366703345
  O        -4.9651786206       -4.3227406006       -6.4322231634
  O         4.5989070551       -6.4338319273       -3.2930956733
  O        -8.2387239064        9.7472655734       -5.5816688349
  O        -1.9243522379       10.5779986936       10.2020142089
  O        -6.3537214118        8.7257164479        8.0990205244
  O         3.2022110153       -5.1105232566        9.7164546486
  O        -7.7131055303       -0.3786285548       -1.4993041721
  O        -6.1453533510       -3.8589161692        6.4448620424
  O         0.2744686586       -5.6970126009       -5.6943857242
  O        -7.1368146326       -2.8889011587       -6.1994000974
  O         6.8528918396        1.8051629547        7.7715991312
  O        -8.8367495524        1.9439744889       -5.9635200694
  O         4.2159339663       -3.2217529434       -8.1377809228
  O        -9.2466708158       -2.9892441417        0.5243203269
  O        -7.9680392918        5.9772543775        0.4603128824
  O         4.2463605789        5.9322794174        6.1350349654
  O        -6.7220768413       -8.6795740751       -1.4851920857
  O        -6.7513069058       -8.0239213107        7.7081983214
  O         4.4561363874        8.5735442666        5.4802329388
  O         6.5415591735       -1.5498304114       -7.6711944595
  O         3.1677303884        4.3793434158       -8.7157024204
  O        -1.3189270614        6.2110814639        8.2048139966
  O         6.8262530634       -4.6304521558        8.2058732924
  O        -5.3208437417        1.2271648464        7.1098838296
  O        10.1029170191        5.3078972106       -4.9700986710
  O        -5.5895774572       -4.3952335841        3.8530362586
  O        -7.4726265884       -8.6511200319        2.6029527763
  O         7.5583187004        2.0505061997        5.2760211105
  O         9.5011348102       -1.6683264050        2.7275815011
  O        -0.5970920523        8.3277897813       -7.9366994322
  O         7.3231918903       -7.1766064064        7.7149244991
  O        -7.3954859498        5.9848657918       -3.0111534327
  O         9.1356573158       -3.0593915750       -1.8837704184
  O         6.0314708306        7.4506750428       -3.2135822911
  O         8.9326984542       -4.7054268717       -6.8048345258
  O         5.9592450249       -2.4941553622        9.4053051876
  O         6.0794289741       -8.8972152004        6.1267457420
  O         9.0407462262        4.8925781654        0.1645158809
  O         8.1600899723       -2.4094791029        7.6876536061
  O        -4.8567113846       -0.8530017650        8.8380544507
  O         6.1110775426        3.8179460505       -6.6964754311
  O         6.6732389895       10.2789014148        1.1439039768
  O        -6.1741476012       10.2132702190       10.1650723151
  O         1.7176130934        8.8711221623       -6.9401991001
  O        -7.4190267685       -5.7160858563        8.7995215716
  O         7.2291582634       -0.5028988498        3.4867514368
  O         4.1976717040       -5.8232367012        4.1050356075
  O        -7.0401008992        6.3183252048        7.0533719553
  O        -8.1177935965        3.3660297857       -0.1224288982
  O         4.9216369042       -6.4554931336        8.2326108611
  O         9.2632308445       -5.3810290119       -0.5073245468
  O         8.9707595555       -6.2731521232        4.4765939826
  O         6.6531394077       -5.0488948664       -2.4702751627
  O         7.0728183412       -2.2978767056       -3.0685052595
  O        -0.3338778301       -7.7690845081        5.5453555919
  O         9.8746708577        7.3869377049       -6.4963297525
  O         7.1667124842        0.4183124781        9.9590732799
  O         0.7220220125       -8.5242485806       10.4147061050
  O        -2.4812676270       -5.3854950785       -6.2474260024
  O        -1.7065118359       10.1711824436       -6.4817894477
  O        -3.9690809289        6.1482671498        8.5446340562
  O        -7.2135593626       -4.9957937492       -3.8819560331
  O         7.6958084733        6.7092117112       -4.9814108311
  O         3.0275168671       -7.6858294054        9.6437391153
  O        -0.9161052340       -7.1159491915       -7.2801288524
  O         6.5424499305        9.8948816662       -5.3846661410
  O         6.1196667141        9.7152311030        3.5673296191
  O        -0.4401514776       -6.3567806897        9.7340768130
  O        -8.5397424065        8.6269412430        6.6794698179
  O        -0.7718112980       -1.9532451231       10.3047703407
  O        -8.4701887724       -7.3602391352        0.1414921129
  O        -5.3598719235        5.2543411398       -5.2095393881
  O         8.1702537895        4.0067423760        6.9980028581
  O        -5.2042379226        7.3732083157       -3.5504949381
  O        -0.2683806663       -3.8744366022        8.7784366745
  O         8.4493456272       -8.0010755562       -0.4707697007
  O         6.4133473624        9.2247735878       -1.0875268093
  O        -6.2031995350       10.9618581528       -4.1079648688
  O         8.6963215013        8.3777091031        5.0165035066
  O        -3.8187100350        8.2114631299        4.1260227018
  O        -4.2253997414        2.6788166197        5.1259125027
  O        -5.5898048308       10.0020473346       -6.6583099772
  O         8.8928896255       -8.1904472368       -5.3898345818
  O         7.4322638880        7.8715103287        9.6736742430
  O         2.0122351642       -7.6698055219       -6.1171177241
  O        -7.1732935814        8.7682831385       -3.0476439449
  O        -5.8293753471        0.2419498993       -8.2977876196
  O         2.2184292806       -6.8168208427        5.7146115686
  O         6.6423635152       -4.9656309131       -7.8705984711
  O        -8.2645646238        3.4959265037       -3.7174039734
  O        -5.0329426278       -7.3283799457        3.2431577537
  O         8.9398622544       -4.1582950134        2.6451857773
  O         3.9468117925        9.9326372609       -6.1588218508
  O        -8.1275734974       -6.9314203128       -5.6246778308
  O         3.2540155875        1.9000001124       -7.6801824251
  O         6.3910936347        6.2052363632        7.7164734046
  O         5.7742384595        0.8993406223       -7.4015117525
  O         2.3429431488       -5.0578843406       -7.1875093057
  O        10.2652124518       10.2716210965       -2.8939856003
  O        -8.7372604506        4.4904824880        2.2891653682
  O         4.8945850393       -6.8457557988       11.1039933384
  O        -6.2695709037        4.3909022608       -7.5106664108
  O         6.0515186845        9.4247249874       -7.9234630734
  O        -9.0264808111       -7.9660213737        9.0452898486
  O         4.0138311477       -0.7847624989       10.8526149175
  O        -7.8278350167       -3.4720266785        2.6454793697
  O        -3.7140890812       10.2802453943       -4.7559751758
  O         3.6162412300        6.7933935578        9.8487627701
  O        -6.4914629559       -1.1302972097        6.8148278401
  O        -5.0686443741       10.3709116666        5.1631947342
  O         7.6410171488        6.7145935184       -1.0817395520
  O        -6.3956633739        3.6991661264        6.2462333847
  O         0.2369894992        7.7178118469       -5.2250396663
  O         5.7830140048        5.4293108622       -8.6589093201
  O         5.3402220095        5.3391989465       -4.6656169347
  O         9.4480106381        5.1736475015       -2.3903045392
  O        -2.8563591612        7.0231905537        6.2601699865
  O        -1.6148797355       -7.3982737742       -4.6667746284
  O         1.2691508001       -1.6624514874        8.4492784607
  O         1.5286225432       -3.1358832108       10.6613747676
  O         8.1454784291       10.4780574288       10.2447220255
  O        -1.4081938945        4.3518409268       -7.3063037734
  O        -9.1745867169       -8.2087883144       -7.7092544246
  O        -2.9307560980       -7.5592399747        5.0992129372
  O        -7.5764499483        0.9981603311       -3.7549574765
  O         9.1294659272        6.1664037715        3.5562833001
  O        -4.3484923536       10.6227013871        8.4882372395
  O        -3.4114436842        3.9261885135       -9.2285800440
  O        -1.2768574537        7.2057155911        4.0527855085
  O         1.1752838882        3.5889373787       -7.2112134950
  O         8.5543659816        9.9828241473        7.1395573166
  O        -2.9271220126       -3.5142417029       10.4116283538
  O         1.0645886795        6.9700716678        9.2474468337
  O        -6.9056205938       -4.4654025535       -8.3283156214
  O        -8.6442947180       -2.6077362918        6.8469782624
  O        -6.0276724236        8.0082136024        5.5449113388
  O        -3.5547588416       -3.8939271561        5.5499326922
  O        -4.2338425584        3.5780773164        7.7216037421
  O        -8.4711271359        4.7232942676       10.6199931205
  O         7.3829123215       -4.1128898417       -4.8164045163
  O         8.7406225156       -6.3683848145       10.5264185151
  O         8.6509352844        5.5214381724        9.2339015503
  O        -5.9468413169       -7.4600805346        0.7850050467
  O        -8.5578183568        4.3149441981        7.4706654726
  O         6.0907892707       -7.4862683215       -1.1885352731
  O         6.8438284169       -7.1063554922       -6.3960142320
  O         8.7636943029       -6.6779930290        1.8261034095
  O         2.2890560169        7.2069186390        4.6636595093
  O        -9.8062325133       -5.6103092534       -4.4456386199
  O        -6.3529549182       -6.0392269413       -1.2943195791
  O        10.0001755254        7.6681893823       -3.9573462605
  O        -9.5324408069        2.1230842318        6.4795081025
  O         2.5909293311       -5.4121884073       -4.5863035308
  O        -9.5455041522       -2.9570848626       -4.9956836029
  O         9.5071321763        0.5085049418        4.3791784078
  O        -5.4399490449        7.8051914709       -8.3529428224
  O        -2.7125907112        8.4552925345        8.5569364000
  O        10.3912924873        7.9217128226       -1.2378418587
  O         1.1598717834       -8.3473492494        7.7567463049
  O        -7.9468383437       -7.1832885109       -2.9668810848
  O        -8.1294385841        5.1881276120        4.9037802670
  O        -1.2351872617        9.5681187266       -3.9762271227
  O        -4.6909599861       -6.9250121322       -5.9730217617
  O        -4.1901916121        7.5023433949       -5.9917108178
  O         8.2674551425        8.7068174538       -2.5715169579
  O         2.7291593971        7.6019809009        7.3399135532
 Si         3.1582146707       -7.1049881107        4.3455324798
 Si        -6.5136108216       -4.4910124149        9.3982954184
 Si        -4.0994914477        7.4198742307       -7.5657584999
 Si         6.3688819694        1.6820717385        9.3143957749
 Si        -9.4292992923       -3.9612853304       -0.8698492236
 Si        -9.4147835938       -5.5872618400        5.4942959595
 Si         9.1977650451        7.8070435902        3.6468034588
 Si        -8.1190525503        8.2911115308       -6.3039226353
 Si         4.0734710682       -6.4750238029        9.6439635608
 Si        -2.9978086680        4.4797961516       -7.7529327110
 Si        -9.0598948184       -8.2700148820       -6.0829916623
 Si         6.1230565375        6.7707177216       -4.6791704341
 Si         3.4455791748        7.3527465185        5.8642980046
 Si        -7.1605694759        0.9414888759       10.2830884273
 Si         8.2606556719       -4.9812087927       -8.2148668942
 Si         6.2392597238       -5.9189959468        7.4591445231
 Si        -7.4259055326       10.4992795542       -2.9895074892
 Si        -4.9843873912       -4.5314048467        5.3924568779
 Si         4.3297666292        5.3533332603        9.9823542057
 Si        -4.8042366011       -0.9102982901       10.4799059745
 Si        -7.0642995957        7.9406226827        6.8076255500
 Si         2.3110689661       10.0595562701       -5.8999292714
 Si        -5.4075037778        6.9111002374       -5.1009288397
 Si         5.1819697085       -2.0349469581       -8.5768957476
 Si         7.0464864219       -8.7829367335        7.3915484111
 Si        -7.1520706896       -4.6960623023        3.5097257789
 Si         5.0018238135        3.9339064201       -5.4910691925
 Si        -1.8237710419        9.3133719189       -7.8353003172
 Si        -8.2401812805       -2.0541808824       -5.3831782788
 Si         5.2251139465        5.1776681546        7.1901282972
 Si         4.2774338776       -5.2841765489       -4.4170954931
 Si         6.9893989253        2.8892603015        6.5653485230
 Si        -8.6883740278        5.0934105537       -3.5542207981
 Si         9.1628125943       -2.8608659829        6.4878837373
 Si        -6.7495054752       -4.8423664656       -2.3248812279
 Si        -2.1775821638       -2.2399504447       -8.3263059340
 Si        -6.5512688765        7.3734887014       -2.6267684160
 Si         9.3885432776        4.4309680403       10.1343137558
 Si        -8.0569632637       -7.1124736355        8.0924356748
 Si        -2.8274180699       10.0708166302        8.6345865473
 Si         0.4971798438       -2.5869692693        9.5321870433
 Si         8.6898235603       -0.8822882968        3.9047808862
 Si        -5.0585421328        2.7865806484        6.5208107111
 Si        -6.9636672666       -7.3940880510       -0.5505556714
 Si         2.7877272090       -4.0525948765       -8.4096039934
 Si        -5.9682624121       10.2379615888        8.5787483522
 Si        -8.2438343292       -0.3567903913       -2.9914683974
 Si         5.4540470717        9.2251859824       -6.4001478767
 Si        -8.2685104698       -6.2371837240       -4.1667509717
 Si        -7.4652181793        9.1001363947        2.4810171538
 Si        -5.2038653541        8.8969856396        4.4481597475
 Si         0.2798509039        8.8666971365       -3.9887008163
 Si         6.1213640170       -6.6434026003       -2.6401098323
 Si         7.7669234769        6.6335141891        8.5749215002
 Si         8.9664031906       -4.3313092108       -5.2430233455
 Si         7.3347226248       -3.2757812061        8.8885898619
 Si        -2.1157465546       10.4816591779       -4.9203470015
 Si        -4.5589133401       -7.4849092149        4.7730269896
 Si        -0.6034855255       -7.6374963540       10.6254412179
 Si        -6.9383976650        4.1043705295       -8.8845374940
 Si         1.8540362061       -6.0676691621       -5.8978800565
 Si        -6.2493989755        9.2464013971       -7.9756904296
 Si         9.2848825471        6.8074234498       -5.1055327597
 Si        -7.4568508585        4.9083744699        6.3820503716
 Si        -0.8109266436       -5.3565119321        8.4864710338
 Si         9.1700042908        1.9642483731        5.0139609478
 Si         9.3570037900       -6.8804887122        0.2962469860
 Si        -5.1477076436       10.9517870554       -5.3863209951
 Si         0.1405280227        5.6938155596        8.7120982137
 Si        -2.7041287139        6.9530648357        7.8789934542
 Si         6.6754403568        4.1600660560       -8.1117658956
 Si         5.7192764884       -6.1199137343       -7.1358785372
 Si         2.8041475155        3.4494693646       -7.4733433766
 Si        -1.1803781514       -6.3480237843       -5.8876603229
 Si        -5.3814168774        3.9333394913       -6.1139001103
 Si         6.9792150385        7.9889745466       -1.9990195547
 Si         8.3688349366       -5.6358294194        3.0517579267
 Si         6.9376088590        9.4269820604       10.0157855044
 Si        -6.1043665032       -3.4475426974       -7.2942045911
 Si        -9.2446224826        0.5901143420       -6.8466400420
 Si         0.8554592009       -7.2016963892        6.6000965883
 Si         8.3631178610       -1.5912576457       -2.2063719473
 Si        -4.3642369254        4.6549163369        8.9648557211
 Si         4.3727868391        0.8418081443       -8.2937864292
 Si         0.5625014716        7.7929788809       -6.8363284538
 Si        -7.0720645629       -2.7018956115        7.1932496116
 Si        -2.3750606726        7.9592482349        4.9558577576
 Si         5.2510434937        9.8738293244        4.9099014561
 Si        -4.0338647389       -5.6524761236       -6.8018065486
 Si         7.3219732931       -8.0446199324       -5.2079372966
 Si         1.8457568884       10.6810249250        9.2803762672
 Si         6.9721095473       10.6349785336       -0.4072420650
 Si         7.1165888572       -0.0029217309       -7.8258242347
 Si         0.0901859857        4.7121108334       -7.7875648377
 Si        -9.3512932606       -3.1066684853        2.1505366661
 Si        -3.4052778317       -4.8902555947        9.7071171100
 Si        -7.8077165271        2.3760028930       -4.7142435174
 Si        -7.8101222855        7.4098036160       -0.1995370149
 Si        -6.3696694921       -7.4185744375        2.3122360473
 Si         6.7132091487        9.0362229539        2.2278701361
 Si        -1.7875741133       10.9260507733        5.8794118582
 Si         8.3587408599        5.2497799759       -1.2171440962
 Si         5.6960016209       -5.1540559698        4.4362209710
 Si         9.3327943578       -7.8308434009       10.3004344187
 Si        -9.8275832619        3.3398113447        7.5486851098
 Si        -9.2270497724        4.8441224265        3.7444699237
 Si        -5.9883500563       -0.0894704845        7.8701444847
 Si         9.2448413742        8.5914405839        6.6155293784
 Si         6.5057164585       -3.7450873031       -3.4822973813
 Si         9.8739828825        8.6709857808       -2.6740268523
 Si        -8.7912606636        4.5398897649        0.6537278839
 Si         2.5087292245        7.6168695473        8.9451935594
 Se        -2.2091189263       -0.5319270161        3.1955065100
 Se        -1.6649871631       -2.5079756598       -6.0360213751
 Se        -4.8743817046       -3.6147078062       -2.1271573680
 Se        -2.0215105394       -4.8085312664        1.8967927236
 Se         1.4343691171       -4.4980150349       -0.9716842903
 Se         1.7576430883       -7.0670278994        2.5167855274
 Se        -6.3521141658       -0.6541108421        1.5399422473
 Se        -4.2672575249        0.1672589553       -4.9984285933
 Se        -4.4922900045        2.1587034423       -0.4597573861
 Se        -1.9006954872        0.6860458219        7.8697289267
 Se         4.0703504660        0.0635552489       -1.4353468988
 Se        -2.4801768789       -1.4705524246       -1.1919109446
 Se         1.1733088518       -0.8040285175        0.6288884962
 Se         0.5885298998       -3.0602359213        5.0191131666
 Se         5.1545116300       -3.9255542892        0.4467262110
 Se         5.7823384108       -2.9488870039        4.8095593301
 Se        -2.0881518122        5.3704029773       -2.6935918976
 Se        -3.9024985844        5.8735718550        1.8198796758
 Se        -0.7812854879        3.2150510297        4.0867054816
 Se         0.0341595928        1.6087529996       -3.5555437820
 Se        -0.7907381428        2.8314533942        0.1978276406
 Se         0.8943405217        6.1490658744        1.7055935436
 Se         1.1221907111        4.5159422587        7.0513103597
 Se         4.9785826987        2.0313517221       -4.3456607316
 Se         3.7992993760        3.1963031146        2.1085999877
 Se         1.4344764046        0.9440558776        4.9572376262
 Se         3.5086353925        0.0057532300        5.6907254252
 Se         7.7075025301       -0.6875080453       -0.1745403496
 Se        -2.1588771799        9.2857292012        0.1034707030
 Se         2.6700806459        9.3411022021        0.5575385836
 Se         2.6347202230        5.0562151369       -2.3292740947
 Se         5.5185114793        7.0554986049        1.8269627003
 Se         6.5098540822        3.9478530402       -1.8473624955
 Cd        -6.3850722791       -1.9141993297       -0.7242502664
 Cd        -4.1359359404       -2.3373015375       -4.3501771317
 Cd        -2.8537634782       -2.9505462314        3.6907234498
 Cd        -2.7975502509        0.9523386782        5.2110199789
 Cd         3.0683939502       -2.3753276026       -0.6164776759
 Cd        -0.8899577896       -3.4369308782        0.0090115855
 Cd        -7.3710287122        1.3086777361        0.0432834959
 Cd         1.1842399816        3.4502653003        1.6917239697
 Cd        -3.7321822586       -0.2347591432        0.9870934404
 Cd        -0.8033335209        2.7694558544        6.9800653084
 Cd        -1.6460561816        0.2016012055       -5.2776694639
 Cd         5.1137335097        0.4083600329        3.5818643428
 Cd         0.1519959338       -4.9606614553        3.2956830797
 Cd         3.1945239080       -2.6906438835        5.0894296714
 Cd         3.6218408331        0.5665760691        1.1819267224
 Cd         2.9941003975       -5.3600940103        0.9282179453
 Cd        -1.4557213885        7.5266337550       -1.7264462896
 Cd        -3.0904651338        4.5173997402       -0.3452659867
 Cd        -3.2517983251        4.2284565182        3.7187125130
 Cd        -4.3525465578        1.1442313095       -2.7215927683
 Cd         0.1358989988        4.1970454085       -1.7987072733
 Cd        -0.6618227628        0.5029952266       -0.9897966004
 Cd         0.3199622581       -0.5625777870        6.9758504372
 Cd         2.5622895246        1.3815105029       -3.5167604116
 Cd         6.6385626781        1.4269923631       -1.4060572075
 Cd         0.4255687048        5.7264984508        4.7032810137
 Cd         5.6866279924       -1.8525369464        1.9625798115
 Cd         0.5397941711       -1.0340888169        3.1768876417
 Cd         1.9745931881        7.1871475686       -1.0539198180
 Cd         0.2775456169        9.6607262289        0.6490702495
 Cd         2.9966562979        7.5628233629        2.5246050278
 Cd        -1.6517025321        7.3302824547        1.8369820036
 Cd         4.2660455698        3.9098744153       -0.4447908782
