402
 i =     7600, time =    15200.000, E =     -5882.3770419829
  O         6.6374787837        2.1212097112       10.5202801328
  O        -5.2504010744       -3.0687087101       -7.6539714212
  O         9.2068639602       -5.2877295399        6.5582165926
  O        -7.8913504550        7.8707251260        1.3840794414
  O         1.6003075326        8.6543902983       -4.0444235849
  O         8.0142512673        7.4981815663        2.9975802559
  O        -6.1204822547        7.9372784406        3.3737476159
  O         5.2393488443        6.6494968984       -5.5256538658
  O        -8.0158522280       -5.1592953701       -0.8638618683
  O         8.6914639923       -2.7016336564        5.6972204423
  O         9.4154304899       -1.8048021094       -2.5557595202
  O        -3.0731476971       -1.7667487639       -8.0271254816
  O         8.4434146898       -0.6885744044       -6.5901437002
  O        -5.0248089435       -5.3948493184        9.7178108536
  O        -7.1241681077       -0.6075808734        9.2600725385
  O        -6.5699032703        6.4375622476       -0.5947575986
  O        -0.3697824399       -6.8662315605        7.5777073726
  O        -6.2844788109        1.5495559687       -4.8429390134
  O        -1.7207313902        8.3578083379        5.8920298866
  O         8.5207099064       -4.6227699558       10.6735696349
  O        -8.0415802099       -6.0597685747        5.2168132484
  O         6.8238144555       -6.7432175170        3.8607608259
  O        -8.6285567459       -0.4446136893       -7.9305867021
  O         3.9715535638       -9.1520304120        5.0533351413
  O        -7.5741129868       -2.5756307694       -3.4715216146
  O        -8.8619688859        7.3862293208        3.6971965208
  O        -3.0707074421        7.5412418415       -7.4067199501
  O        -7.0631288864        1.5935951873       10.8315348389
  O        -5.0627200146       -7.2473938878        6.0369879137
  O        -8.7155336716       -7.6207219835        7.1395832387
  O         0.3116793098        7.0193329564       -2.1273997895
  O         3.6337287440        2.7344054860       -5.7572445968
  O        -7.1739376918       -6.9186039410        2.7527665838
  O        -3.7017601461       -6.8038900551       -8.0176935180
  O         7.0286488720       -8.7889211461       -3.3138471166
  O        -7.0717802544       -3.8541728377        9.0517576674
  O         8.9056567258        6.5719482987        7.9988648469
  O        -3.9428331782        2.4966849233       -6.1352364146
  O         5.0270764810       -4.9360445950       -3.3645080032
  O        -6.9873333132        6.2824968122       -5.1001811200
  O        -5.8609742989        3.8377648429        9.9850049078
  O        -1.8868632159        9.9329670759        8.0031595777
  O         5.8115112159        3.1148772048        6.7357868496
  O         4.4996486624        4.0608351370        8.8956213351
  O         9.3768217266        2.1278938200        9.5029660285
  O        -2.5667653830       -6.0031032515        8.9371656967
  O        -7.7472713108        7.6427639654       -7.3668779371
  O         4.8895655384        0.4128987306        9.7749903264
  O         6.3800232121        8.9750679774        9.2090652915
  O         0.1072875073        4.0537392358       10.5639689173
  O         6.2375173726       -6.7248410498        6.4456550883
  O         4.5719089059       -6.5347507677       -5.4483818238
  O        -3.2995976324        4.9357660095       -7.2739376161
  O         2.5392185102        8.4800664283        9.6181249325
  O         8.4425359894        3.3982149895       -7.6339172243
  O         0.7492039706        5.2083849109       -6.4561081519
  O        -8.6261402121       -1.6186715060       -5.6372692982
  O         9.6098891662        2.4093550579        4.6739247972
  O        -4.9926287539       -5.2670633028       -6.1353998365
  O         4.6855022716       -7.4750001387       -2.9393013175
  O        -8.4471412514        8.7998284478       -5.0724902216
  O        -1.8421511805        9.5412737003       10.7622614128
  O        -5.9886643874        7.9342710923        8.2522418334
  O         3.1276651383       -5.7757013170       10.2259903615
  O        -7.7815319836       -1.3953776216       -1.0268982839
  O        -6.1327653606       -4.8181899248        6.7722418891
  O         0.2133032053       -6.4266233402       -5.2143833458
  O        -6.9353992821       -3.7373380525       -5.6389331816
  O         6.7905105423        0.8574361387        8.0449186526
  O        -8.8961745923        0.8140332081       -5.5573674467
  O         4.2317406218       -4.1505712705       -7.5714249971
  O        -9.5343620844       -4.1429241962        1.0548875287
  O        -8.1468149943        5.2148961931        1.0566470916
  O         4.5688015275        5.3788098214        6.5067465251
  O        -6.7949536628       -9.7078106557       -1.0143745543
  O        -6.7820813539       -8.8696011885        8.3273737031
  O         4.2031424820        7.7804029314        5.5926336901
  O         6.5459334638       -2.3950492414       -7.1405429836
  O         3.2609756408        3.7465275620       -8.2319980564
  O        -1.2464663631        5.5191469718        8.7855112236
  O         7.1752771937       -5.5932900481        8.7436611570
  O        -5.3872580942        0.5325346568        7.5612890455
  O         9.9575792128        4.3902145861       -4.4796421562
  O        -5.6222725203       -5.2674842844        4.2716464163
  O        -7.7495604746       -9.5439219321        3.2991384957
  O         7.4524106106        1.1996003379        5.5896333351
  O         9.6190097417       -2.4959644527        3.2005709587
  O        -0.5994289678        7.3018733722       -7.4428256220
  O         7.1749535271       -8.1844979883        8.2849744168
  O        -7.5733774553        4.9949321892       -2.6277219290
  O         9.1103758118       -4.2431667049       -1.4591898881
  O         5.9676946630        6.5215984798       -2.8949322220
  O         9.1683420990       -5.6678032045       -6.4032276993
  O         6.1756815057       -3.3801154764        9.9077250456
  O         6.1217150691       -9.9358237425        6.5321150447
  O         9.0483876980        3.9492647178        0.6462089955
  O         8.3344882253       -3.2800986187        8.1968129541
  O        -4.6558780317       -1.5033691113        9.3720397074
  O         6.2337998346        2.7977134039       -6.2971667391
  O         6.4031648262        9.1006773528        1.5596247939
  O        -6.1376718233        9.1124305941       10.5614585939
  O         1.6602043084        7.9977573235       -6.4766468663
  O        -7.5714793103       -6.3358005310        9.1511813134
  O         7.2702961846       -1.3695405968        3.7567757799
  O         4.1444883851       -6.4780976232        4.7427997988
  O        -7.2131113703        5.5620449755        7.5974834448
  O        -7.9272559563        2.5314279977        0.4019120116
  O         4.8550359794       -6.9578237938        8.6794785562
  O         9.1276102410       -6.5231040969       -0.2084896855
  O         9.0393771344       -7.4054206860        4.9065505991
  O         6.8615255630       -6.3672263187       -2.1096791341
  O         7.0515625830       -3.4567466477       -2.4431047302
  O        -0.3310143414       -8.7637561800        5.8826400158
  O         9.8637724183        6.5418828553       -5.8698360380
  O         7.4075114943       -0.4858949473       10.2828688640
  O         0.8038053841       -9.3560860859       10.8316751147
  O        -2.5617043331       -6.2536987503       -5.6612052785
  O        -1.6285425568        9.1868476541       -5.9816301325
  O        -3.7457621242        5.1412112183        9.1932609805
  O        -6.9302730716       -6.1201355267       -3.3118319088
  O         7.5677796822        5.6594249919       -4.8147518552
  O         2.9988299337       -8.3958315709        9.7609636590
  O        -0.9691640669       -8.1319059338       -6.8204248701
  O         6.4446731122        8.8443784335       -5.0833367214
  O         6.0633845990        8.8715075881        4.0862300190
  O        -0.7937798293       -7.4015611655        9.9849159342
  O        -8.4751987037        7.9523089816        7.1739700798
  O        -0.6981864379       -2.7822975373       10.9104903590
  O        -8.5881115740       -8.3898376149        0.5346703850
  O        -5.4355079258        3.9832189178       -4.4717574773
  O         8.1688928729        2.9935465790        7.5015487049
  O        -5.2559226899        6.0652771447       -2.9440289340
  O        -0.1683407917       -4.8493257794        9.3642348630
  O         8.3125327709       -9.2176047872        0.1233068796
  O         6.1654975493        8.1501532915       -0.6388489630
  O        -6.1828193674        9.8896138112       -3.7456050006
  O         8.7924529261        7.4933064052        5.5560285969
  O        -3.8960131011        7.1553460749        4.6042526674
  O        -4.2234763673        1.7791289381        5.6324513383
  O        -5.6156342452        9.0166378219       -6.2204131878
  O         8.8757961772       -9.1872771122       -5.2094856211
  O         7.4284710282        6.7869569130       10.2214253515
  O         1.8240432224       -8.5533902265       -5.5227591513
  O        -7.2966509284        7.7638053094       -2.9002847875
  O        -5.7588392123       -0.4640381070       -7.9131696732
  O         2.1734257531       -7.5225854515        6.3423643926
  O         6.6279418415       -5.7656766186       -7.2634682518
  O        -8.2901488811        2.4587620232       -3.3490545754
  O        -5.1558101458       -8.4949403540        3.6845862447
  O         8.8292703066       -5.1124428398        3.4043163677
  O         3.8244316962        8.9609028721       -5.6901273584
  O        -8.1121067167       -7.9228903690       -5.2620174853
  O         3.2080394589        0.8468718374       -7.5058498974
  O         6.6739819882        5.3102581240        8.0020887868
  O         5.8118534564        0.1696041079       -7.1276366864
  O         2.3247019844       -6.0924007238       -6.7147043863
  O        10.2848713794        9.1957190574       -2.1734026451
  O        -8.7263807432        3.4112474436        2.7878467535
  O         4.8689577481       -7.5785351893       11.4731936829
  O        -6.3208522395        3.3842216824       -6.8780929703
  O         5.9435969071        8.3269582256       -7.6353645252
  O        -9.2479256873       -8.5358019924        9.4381131026
  O         4.2242569201       -1.6391803791       11.1336788104
  O        -7.9276514403       -4.4371495491        3.0646631239
  O        -3.6405156693        9.5141482944       -4.3981264915
  O         3.7594974434        6.2056137641       10.1781832387
  O        -6.0952371674       -2.0519149745        7.2202360172
  O        -5.2464624632        9.3553366314        5.7255989494
  O         7.4123445783        5.7401925081       -0.7748289988
  O        -6.2708635219        3.0904702014        6.8219759371
  O        -0.1194728564        6.8986177246       -4.8611671255
  O         5.7741971730        4.5235523079       -8.1773037247
  O         5.3224114452        4.3170027166       -4.1884769286
  O         9.3229991766        4.0632662161       -1.9831274812
  O        -3.0482623764        6.2488545972        6.9049006603
  O        -1.5575858623       -8.1817277696       -4.2602776642
  O         1.3485144057       -2.6380554289        8.9685550501
  O         1.5393221780       -3.9290917815       11.2249864900
  O         8.3543072922        9.2840064053       10.8885593500
  O        -1.3827422558        3.4516974669       -6.7541458221
  O        -8.9659428966       -9.0256439291       -7.3386446274
  O        -3.0282947599       -8.7854379650        5.4834200761
  O        -8.0556256631        0.0326130294       -3.2000362154
  O         9.1717135505        5.1662822964        4.2443367150
  O        -4.2609470715        9.7780153892        9.1186598922
  O        -3.3138962686        2.8541906767       -8.7489015400
  O        -1.6070029438        5.8092855701        4.6809701098
  O         1.2407844069        2.6446968439       -6.9606526311
  O         8.4953646187        9.0599127792        7.5885653516
  O        -2.8114677603       -4.3946053918       11.0825848102
  O         1.1619887718        6.2493121531        9.6737283760
  O        -6.9585790183       -5.0768495941       -7.9985649639
  O        -8.5012847142       -3.3297380762        7.0279095480
  O        -6.2551551458        6.8869488249        5.7733537664
  O        -3.5096508886       -4.9761875516        5.8488651033
  O        -4.1175075963        2.7811407254        8.1847471114
  O        -8.3497331277        3.8215602853       10.9198728979
  O         7.4545833662       -5.2693094710       -4.3883199822
  O         8.4463898452       -7.4372280056       11.1701421433
  O         8.8469523353        4.6420106078        9.6004559034
  O        -6.0625283556       -8.7395185799        1.2413102684
  O        -8.5689907186        3.3905603203        7.8711620326
  O         5.9260023175       -8.7053197024       -0.8918409427
  O         6.6030074729       -8.1009912904       -5.8822553803
  O         8.7038672843       -7.5470226535        2.2749683051
  O         2.2933249327        6.0518029578        5.1138677208
  O        -9.5512938159       -6.2869616750       -3.8046029042
  O        -6.4532397982       -7.2323330773       -0.8737518478
  O         9.7016156692        6.6515892581       -3.3199626331
  O        -9.5098383117        1.0082305466        6.8717969009
  O         2.5855033550       -6.2698210825       -4.0265385458
  O        -9.5562904546       -3.8346524076       -4.6787279588
  O         9.6533351124       -0.3457533960        4.7031580900
  O        -5.3248634420        6.8281877549       -7.7069405542
  O        -2.7877843260        7.6361768825        9.2180604971
  O        10.2630395731        6.9679392348       -0.7577848266
  O         1.0085528792       -9.1495568176        8.1597705713
  O        -8.2492797845       -8.2594988395       -2.6657806021
  O        -8.0558152008        4.3589032784        5.3217899171
  O        -1.1367108218        8.7677488687       -3.3936622332
  O        -4.7116465006       -7.8936141669       -5.6749137355
  O        -4.3566544525        6.2316850050       -5.3572128378
  O         8.0785928488        8.0438221795       -2.0707235539
  O         3.0135821086        6.7708619850        7.7242950718
 Si         3.1478772008       -7.7342890342        4.9836692321
 Si        -6.6407529843       -5.2033747683        9.8013033374
 Si        -4.0289261060        6.3243383102       -6.9395868590
 Si         6.5111003928        0.7481745054        9.6576212833
 Si        -9.5090034665       -5.0217714059       -0.2978543418
 Si        -9.3378238497       -6.6226611486        5.9999797702
 Si         9.0814007924        6.8448123270        4.0672605744
 Si        -8.1418985581        7.3130112225       -5.7993192113
 Si         4.0604366940       -7.1502449311       10.0637538740
 Si        -2.9565883701        3.3403171767       -7.1998898205
 Si        -8.9957615756       -9.1938587696       -5.7562351694
 Si         6.0176548479        5.8088929674       -4.4330781490
 Si         3.4385611255        6.4689757750        6.1913177032
 Si        -7.1407880300        0.0260599603       10.7871877321
 Si         8.2381160058       -5.8978105028       -7.7055039630
 Si         6.3511170916       -6.8351865380        8.0551423914
 Si        -7.4872719321        9.5238299483       -2.5212465228
 Si        -4.9836351060       -5.5463137560        5.8623830474
 Si         4.3356022846        4.6575284731       10.3811233320
 Si        -4.6628810764       -1.6767637621       10.9547778119
 Si        -7.0418722339        7.1532075442        7.2078409282
 Si         2.1992765436        9.1858564784       -5.4691875378
 Si        -5.5282600851        5.6500808745       -4.5188092373
 Si         5.3211958157       -2.9366221324       -8.0933636618
 Si         7.0270359105       -9.7455459265        7.8807823656
 Si        -7.1757414456       -5.6935293325        3.8846390807
 Si         5.1508974291        2.8978939869       -5.1060322378
 Si        -1.7714778345        8.3806931121       -7.2993532844
 Si        -8.1792252793       -3.0108970371       -4.9297089803
 Si         5.3687160046        4.4773261118        7.5519691972
 Si         4.2180435438       -6.2033515971       -3.8752674765
 Si         6.9525357278        2.0265501390        6.9040737490
 Si        -8.8096358346        4.0088893805       -3.0373420052
 Si         9.2626243485       -3.6756971421        6.8651622113
 Si        -6.8225252371       -5.8578152179       -1.6834832278
 Si        -2.1295799274       -3.0475131932       -7.7333973315
 Si        -6.6958490829        6.4027814811       -2.2440368909
 Si         9.4763751764        3.5072142901       10.4427375057
 Si        -8.0532503305       -7.8001467636        8.6235812176
 Si        -2.7711811416        9.2243922325        9.1691142496
 Si         0.5601146706       -3.4901642503       10.0366461325
 Si         8.6847223433       -1.7457865465        4.3076280210
 Si        -5.0548915682        2.0080807970        7.0057402217
 Si        -7.0622048794       -8.4915500177       -0.0578579985
 Si         2.7739200622       -4.9418129773       -7.8129623278
 Si        -5.8564988089        9.4183663563        8.9437177436
 Si        -8.3140568093       -1.4185660334       -2.5200972367
 Si         5.2968513784        8.2475792468       -6.0805201227
 Si        -8.1588574729       -7.1922065378       -3.7717217380
 Si        -7.6794802600        8.2013906362        2.9702063187
 Si        -5.3608080838        7.8452161381        4.8214178073
 Si         0.1978492434        7.8107799748       -3.5507837719
 Si         6.1595143227       -7.8309172944       -2.3249421644
 Si         7.9527794455        5.8327107905        8.9962356066
 Si         9.0774983205       -5.2706182991       -4.7828132777
 Si         7.5447162195       -4.1245300155        9.3723891451
 Si        -2.0376188437        9.6397086233       -4.4283416300
 Si        -4.6660624792       -8.5598037150        5.2166332740
 Si        -0.5824045979       -8.5479156269       11.0322856216
 Si        -6.8976591816        3.1607710339       -8.3382147298
 Si         1.7923300875       -6.8212911670       -5.3805859648
 Si        -6.2344176950        8.2020222460       -7.4992924982
 Si         9.1719308761        5.8187746750       -4.6236310286
 Si        -7.5188794711        4.1157940883        6.8414855593
 Si        -0.9561767008       -6.1249925500        8.9015064142
 Si         9.1566921263        1.0528975544        5.3725301996
 Si         9.1720579412       -7.8886379466        0.6545338365
 Si        -5.1560233102       10.0347539339       -5.0085514558
 Si         0.2370713223        5.0182033095        9.2767261233
 Si        -2.7011990537        6.1749005324        8.5400836493
 Si         6.7585250314        3.2423330386       -7.7463554267
 Si         5.6288416774       -6.9781322892       -6.5978564904
 Si         2.8547816658        2.4555859082       -7.1438914093
 Si        -1.1850465667       -7.1601942361       -5.5514275095
 Si        -5.4844226305        2.7912827999       -5.6367482677
 Si         6.8518025658        7.0550803123       -1.6035803628
 Si         8.3617007547       -6.6853936456        3.5617375061
 Si         7.0258532586        8.3291575900       10.5414900868
 Si        -6.0419422226       -4.2067179813       -6.9497738655
 Si        -9.3603831474       -0.4231883942       -6.4341113096
 Si         0.6788577178       -8.0139903659        6.9503642822
 Si         8.4254121898       -2.7828242260       -1.7657345147
 Si        -4.2825441033        3.6579624619        9.5125074359
 Si         4.4828811449       -0.0559604497       -8.0977774297
 Si         0.4901676048        6.8666943610       -6.3882479235
 Si        -6.9431447876       -3.5157850182        7.4621359162
 Si        -2.5215413477        6.9382416175        5.4679144369
 Si         5.1033756917        9.0490320853        5.3281916594
 Si        -4.0212325891       -6.6004601751       -6.3292617598
 Si         7.2615659756       -9.1891176750       -4.8562746242
 Si         1.8669658346        9.8848440728        9.5531595456
 Si         6.7650768936        9.5994566728        0.0591990300
 Si         7.1206103912       -0.9084247829       -7.5084750847
 Si         0.1606454598        3.9242848722       -7.2243783547
 Si        -9.4473412658       -4.0073288015        2.6882697145
 Si        -3.4596607461       -5.6096740781       10.2697127144
 Si        -7.9038693163        1.2503507313       -4.2863393729
 Si        -7.9476593406        6.6485940292        0.3275789448
 Si        -6.5815757238       -8.4706493057        2.7229698098
 Si         6.4604081362        7.9885853063        2.7453601735
 Si        -1.7997992680        9.9522638283        6.2654349968
 Si         8.2509896839        4.2873570707       -0.8108138929
 Si         5.7589455570       -6.0553083822        5.0017313348
 Si         9.3355729774       -8.8219463882       10.8930826634
 Si        -9.7894647164        2.3107827272        7.8872268893
 Si        -9.1817321983        3.8871529556        4.2205415104
 Si        -5.7995762968       -0.8680453789        8.3089415113
 Si         9.2563856108        7.7909111306        7.0089398317
 Si         6.6256933199       -4.9632317662       -3.0061336244
 Si         9.6416153272        7.7182896099       -2.1060868642
 Si        -8.7000624198        3.6938122558        1.1029218363
 Si         2.6116851193        6.8873433345        9.2581579761
 Se        -2.3783053527       -1.4833429440        3.6025800585
 Se        -1.6987321079       -3.3796576133       -5.5735994696
 Se        -5.0690922117       -4.3455525624       -1.4947034576
 Se        -1.7375766651       -5.5362854207        2.2592571373
 Se         1.4701464368       -4.9097648869       -0.3204942655
 Se         1.8030622159       -7.6885884531        3.1522191636
 Se        -6.3236693907       -1.3316152158        2.0719167400
 Se        -3.7962981568       -0.4764590829       -4.6376704662
 Se        -4.7206966824        1.4627715666       -0.1919412999
 Se        -1.6282659291       -0.1126334584        8.1672852918
 Se         3.9008057604       -0.7048736967       -0.7602806750
 Se        -2.1503853112       -1.9723668192       -0.5454709398
 Se         1.5585012753       -1.5906866803        1.6473580532
 Se         0.7340551885       -3.5451387436        5.4593666464
 Se         5.2706584139       -4.4838461918        1.0878728526
 Se         5.8544904461       -3.8114204947        5.2512020267
 Se        -2.1798277848        4.3809627320       -2.1491721322
 Se        -4.2225204823        4.6900157211        2.1905208785
 Se        -0.7896245741        2.3538350591        4.5784133476
 Se         0.3868380047        0.3811922059       -2.8024921769
 Se        -0.9041529281        1.7907925819        0.8265164637
 Se         0.4365167914        5.4451512376        1.9720240601
 Se         1.1886366440        3.9056645413        7.6335286080
 Se         5.2010792659        0.9522315208       -3.9982654848
 Se         3.4510804488        2.6309879368        2.5851594093
 Se         1.6238036382        0.2428352092        5.6686102924
 Se         3.7398177352       -0.7850531205        6.4379605717
 Se         7.8803083967       -1.5421260094        0.0630840798
 Se        -2.2395059616        8.4172736261        0.7543151260
 Se         2.8550514356        8.6678830332        0.6190008413
 Se         2.6315073147        4.1708214383       -1.6393449254
 Se         5.5222010385        5.8379538376        2.4259946212
 Se         6.4350038010        2.8658801723       -1.2128859444
 Cd        -6.4566297246       -2.7481204572        0.0507846144
 Cd        -4.1071710378       -3.0577213524       -3.6202920285
 Cd        -2.7266923231       -4.0564724502        4.0334770446
 Cd        -2.8768253746       -0.0843743920        5.7695740703
 Cd         3.4497313745       -3.3004632467       -0.2822487529
 Cd        -0.4525416282       -3.5780285439        0.6357560062
 Cd        -7.1663734232        0.4963182610        0.4416743376
 Cd         0.8712158203        2.8106308270        2.4006575867
 Cd        -3.8059357744       -0.8751133834        1.1829905213
 Cd        -0.6557410820        2.0958232936        7.3484457416
 Cd        -1.0952671746       -1.0918316806       -4.2331724611
 Cd         5.1574657139       -0.4341462121        4.2471303994
 Cd         0.2926240244       -5.7127375192        3.8186292793
 Cd         3.2305088439       -3.3178481780        5.5513885006
 Cd         3.6462361249       -0.0622535980        1.9598050476
 Cd         3.1123139665       -5.8700143538        1.7321799856
 Cd        -1.7623877297        6.6929499751       -1.2000126004
 Cd        -2.9042540447        3.4786990936        0.2994192775
 Cd        -3.2781505334        3.1945889795        4.0872243966
 Cd        -4.4540436474        0.6854775554       -2.5365099803
 Cd         0.1456659930        3.2770774978       -1.0805248761
 Cd        -0.0256476641       -0.4870746939       -0.2453135292
 Cd         0.5241917038       -1.4100918917        7.4115744979
 Cd         2.8797142543        0.6421247604       -2.8327026571
 Cd         6.4275533402        0.1477574447       -1.4460880663
 Cd         0.4356564723        4.9683071799        4.8557240772
 Cd         5.9759126432       -2.3088758157        2.0111340075
 Cd         0.2699096481       -1.3311480170        3.8585939718
 Cd         2.4201522802        6.6013886495       -0.8843524395
 Cd         0.2847776843        8.6373593714        0.8956701851
 Cd         3.0093249644        6.6183172451        2.6859526860
 Cd        -2.1653693338        6.3665491437        2.4218984147
 Cd         4.4564007387        3.7644816357        0.4200964218
