402
 i =     7500, time =    15000.000, E =     -5882.3823778951
  O         6.5288417997        2.1237362637       10.6671185181
  O        -5.5951925928       -3.1022324377       -7.5505205781
  O         8.8963365905       -5.3444155043        6.4001802623
  O        -7.6333718975        7.6856272630        1.4751040691
  O         1.5756526496        8.7006610834       -4.2671105469
  O         8.0764933260        7.5920841793        3.0446015339
  O        -6.2501792129        7.5883812659        3.5874980214
  O         5.2423406047        6.8686760184       -5.2301713145
  O        -7.9646192898       -4.6305627062       -0.6809790382
  O         8.8474142720       -2.6902644134        5.7844284485
  O         9.3365062027       -1.7361614658       -2.5699786738
  O        -3.4531573426       -1.6976678941       -7.7960379738
  O         8.2756945710       -0.3018739593       -6.4362104430
  O        -5.0094609763       -5.7665458229        9.5672285554
  O        -7.5946077353       -0.6670186360        9.4064642859
  O        -6.3678672528        6.4451099743       -0.4741060516
  O        -0.0956208737       -6.7290684499        7.6485080689
  O        -6.4213508967        1.7358624830       -4.5258070266
  O        -1.5891364449        8.3345359505        6.1103145688
  O         8.2656050118       -4.5937041922       10.7468489678
  O        -8.0759263998       -6.0832237561        5.3865131871
  O         6.7764815038       -6.8086999131        3.9368420085
  O        -8.7998560366       -0.0749941355       -7.7327015480
  O         3.7083777690       -9.3415814320        5.3711514851
  O        -7.7550354879       -2.4827783324       -3.5387134079
  O        -8.8445332051        7.5107212440        3.6552212934
  O        -3.1777598046        7.3754090222       -7.7890886926
  O        -7.0764478490        1.6286625414       10.2847678412
  O        -4.9258542336       -7.1650378873        6.1428363859
  O        -8.9888150324       -7.5871745271        7.2585736592
  O         0.7211397805        7.0904502554       -2.2936161069
  O         3.5137573644        3.0769390044       -5.6947614137
  O        -7.2584020586       -6.9528248686        3.0273890460
  O        -3.6053940487       -6.8652355819       -7.9175707292
  O         6.9536296433       -8.3688263099       -3.1778663636
  O        -7.1446099803       -4.1872627662        9.3739714666
  O         8.8019515023        6.3672221829        7.9740072096
  O        -4.1508126489        2.5811080805       -6.1798447441
  O         4.8952420067       -4.8201345764       -3.4767514772
  O        -7.0650865140        6.4375420190       -5.2116490224
  O        -5.8895463741        3.9450119833       10.0593915174
  O        -1.9972762460       10.0476242736        8.0463968067
  O         5.7046053041        3.0942378444        6.6890489410
  O         4.4760790985        3.6863684963        8.9458131905
  O         9.4163234358        2.1957796604        9.7764086497
  O        -2.5188187413       -5.9672027311        8.8857202321
  O        -7.8823461424        7.7029904636       -7.4283203139
  O         4.6738007020        0.5279359528       10.0132384784
  O         6.2036430903        9.2016435785        9.4493281043
  O        -0.2464194453        3.9598165314       10.4191606686
  O         5.9002648625       -6.8749531368        6.4707757308
  O         4.8261772693       -6.7801940731       -5.2537643977
  O        -3.7840651764        4.9046787122       -7.2690496386
  O         2.4991505002        8.3267955779        9.5808955124
  O         8.4078825510        3.5519540950       -7.4800583067
  O         0.9033710068        5.1689120694       -6.8973026268
  O        -8.7743397558       -1.7128307220       -5.7933799611
  O         9.5187145693        2.4107523153        4.9191120454
  O        -4.8191370363       -5.2991032821       -6.1355714353
  O         4.4928253300       -7.5183954466       -2.6675115996
  O        -8.4968082225        8.7958033436       -5.1634557445
  O        -1.9741802280        9.4059913730       10.7065326862
  O        -6.2186192757        7.6974070431        8.5225551061
  O         3.3135592414       -5.8789517878       10.1890081207
  O        -7.6726251127       -1.4396018308       -1.1274077540
  O        -6.1216914251       -4.8125151420        7.0055839894
  O         0.2632640457       -6.6994543721       -5.2515702952
  O        -7.1366326807       -4.0335002519       -5.6179169287
  O         6.5798546059        1.0067930127        8.1613508830
  O        -9.0772368508        1.0144874391       -5.3749943103
  O         4.2724242110       -4.1740862581       -7.5399041303
  O        -9.5243614475       -4.0472267161        1.1214640276
  O        -8.2541305535        5.2877117381        1.0215496961
  O         4.1672507498        4.9995272471        6.5865089525
  O        -6.4818649250       -9.4664750348       -1.0670739478
  O        -6.8463786598       -9.1390409981        8.1149442597
  O         4.4372226065        7.5399589390        5.7345514528
  O         6.4890245533       -2.2609594140       -7.1459313375
  O         3.2922451871        3.5302503005       -8.1454245790
  O        -1.2410706608        5.4090195928        8.5522658566
  O         6.5853477010       -5.5989305422        8.8321474153
  O        -5.7000287191        0.2951136287        7.6340362779
  O         9.9009386533        4.4080115323       -4.1621492093
  O        -5.8357539144       -5.2464821508        4.4081034298
  O        -7.4339930062       -9.5948045186        3.1966628700
  O         7.4213981618        1.1505374248        5.7246039100
  O         9.6634138623       -2.5574998661        3.2398995029
  O        -0.5258863500        7.1421468814       -7.6332726136
  O         7.3420418153       -8.1124150096        8.3129685309
  O        -7.5292082471        5.1076188189       -2.4339584719
  O         8.9566990255       -4.0494223968       -1.3040530714
  O         5.9805861130        6.6336832434       -2.6605465649
  O         9.1567482056       -5.7092185530       -6.3508104102
  O         6.0338722045       -3.2914688604        9.9819519230
  O         5.9206726229       -9.8150490722        6.7327105041
  O         8.9128157095        4.0997737575        0.9840595689
  O         8.1124463210       -3.6836712859        8.1751556846
  O        -5.0406278324       -1.5676332189        9.4724555772
  O         6.1916622064        2.9761638888       -6.1574054211
  O         6.5830255061        9.3606327393        1.6683428672
  O        -6.3992800434        9.3971505160       10.6301127512
  O         1.7761102174        8.0179654382       -6.7217526829
  O        -7.4574543796       -6.8299190862        9.3028672779
  O         7.3119333706       -1.6009996741        3.7435097249
  O         4.1038674501       -6.7378649471        4.7307757998
  O        -7.0587887795        5.2884842210        7.6662084158
  O        -8.2151068696        2.6548296163        0.4752712704
  O         4.8480727220       -7.6424693176        8.7652512708
  O         9.4738945532       -6.4129837767       -0.1796274121
  O         9.1417406170       -7.5175685555        4.8302099986
  O         6.5686513559       -6.0456833504       -1.8670033178
  O         6.8571658847       -3.2699488434       -2.3787125811
  O        -0.3200653650       -8.6995954032        6.0311021036
  O         9.7029408848        6.4820766496       -5.9108245069
  O         7.1211733636       -0.3986698060       10.4348907078
  O         0.6233242685       -9.4771164171       10.6874350361
  O        -2.4064973632       -6.3673208086       -5.7783670861
  O        -1.6332457153        8.7763240864       -5.9700657421
  O        -3.8396658562        5.0986951848        9.0775967460
  O        -7.1431267919       -5.8716886252       -3.1223559158
  O         7.5591289609        5.5994071431       -4.5265244240
  O         2.9849338936       -8.5574375975       10.2261745361
  O        -0.9697836263       -8.2352516668       -6.9217441911
  O         6.6050838048        8.9481084188       -4.9124947684
  O         6.0351633203        8.8707762926        4.2296341861
  O        -0.7990231297       -7.5305404168        9.9866513141
  O        -8.5223447465        7.6940523143        7.1425042715
  O        -0.9640439405       -2.7479821110       11.0286926617
  O        -8.4328380370       -8.3901893579        0.5483839782
  O        -5.7058773237        4.2690309826       -4.8051831907
  O         8.1664465578        2.9956655389        7.4324309255
  O        -5.2650223811        6.0151246423       -3.0496036353
  O        -0.1787708057       -4.9247800990        9.5364095027
  O         8.3227240699       -8.9285674045       -0.0529568783
  O         6.2401394981        8.4173521459       -0.6718103348
  O        -6.2736257296        9.9800730039       -3.7452896307
  O         8.7636285067        7.6006356747        5.5700383839
  O        -3.8215295399        7.5302366837        4.6981561365
  O        -4.1034145828        1.6012313734        5.8930024671
  O        -5.7630304760        9.0942991707       -6.2046529846
  O         8.9292334610       -9.0593068434       -4.7484557602
  O         7.4735892024        6.9890524140       10.1687272041
  O         1.9949035303       -8.6179343789       -5.7039032514
  O        -6.9670834884        7.8651461066       -2.6860133017
  O        -6.0304659217       -0.4675720022       -7.7337787538
  O         1.9893255944       -7.3812948242        6.0559688722
  O         6.6242243570       -5.8246842272       -7.1286954459
  O        -8.3055527950        2.5724282149       -3.0292470107
  O        -4.9459407251       -8.3581132707        3.6783120498
  O         8.7943777850       -5.1352799540        3.3954666005
  O         4.0048603401        9.0706734941       -5.7696636183
  O        -8.1117481553       -7.8906473234       -5.0693095119
  O         3.0172600350        0.7976624144       -7.3041669463
  O         6.3050299718        5.3665489134        8.3036903304
  O         5.5651400391        0.2007209224       -6.9339189608
  O         2.4483164448       -5.9770276007       -6.6332358717
  O        10.4321040567        9.3092572445       -2.4600696854
  O        -8.8827252616        3.4571154387        2.9787280231
  O         4.8580205249       -7.6403283874       11.5867083478
  O        -6.5873822680        2.9007484353       -6.9156530704
  O         6.0383950985        8.2587185007       -7.3874944411
  O        -9.1303163754       -8.8240176589        9.5913182604
  O         4.0322515579       -1.6659193332       11.4074295113
  O        -8.0544540713       -4.5175684980        3.3273767550
  O        -3.6950503050        9.4773628178       -4.3690329133
  O         3.7883499228        5.9765251918       10.1440266674
  O        -6.4813344774       -2.2674061525        7.4974781879
  O        -5.4491195679        9.4507189426        5.6945362517
  O         7.5081194540        5.9446406097       -0.4752393210
  O        -6.3390257424        2.8511984964        6.7288033015
  O         0.1763673826        6.7234462412       -4.9420364987
  O         5.8876987961        4.5759905800       -8.2610923918
  O         5.2762433292        4.5171725076       -4.3140556005
  O         9.5159306978        4.1607087763       -1.5552184412
  O        -2.9769672377        6.2103618347        6.7791726659
  O        -1.5490100118       -8.3480871706       -4.3898138634
  O         1.1699644070       -2.4746263991        9.1801710450
  O         1.5888912896       -4.0286830059       11.2595648024
  O         8.3671853284        9.3349093667       10.9473291775
  O        -1.5319797533        3.5819524551       -6.7790410567
  O        -9.2620445064       -8.8165644171       -7.1194146961
  O        -2.9957128973       -8.9044587951        5.3328490550
  O        -8.0407326161        0.0369478185       -3.2691407747
  O         9.1373999392        5.3119147465        4.2623468728
  O        -4.3205009885        9.5656236398        9.1446814208
  O        -3.4211120878        2.9243002617       -8.7002994186
  O        -1.4693880879        6.1946569016        4.5648651887
  O         1.0642131732        2.6060702573       -7.0792877848
  O         8.3692743933        9.0044786994        7.6671540667
  O        -3.2533318659       -4.1981152267       10.8096664829
  O         1.0789127958        6.1100371484        9.5646755187
  O        -6.8394893308       -5.4776718177       -7.8606140845
  O        -8.6515442973       -3.7905660701        7.3104222362
  O        -5.9429560756        6.9739266265        6.1768284066
  O        -3.6580815396       -4.6953157928        5.8958129876
  O        -4.3613916134        2.6333676804        8.2891643622
  O        -8.4632556868        3.9362393009       10.9609789039
  O         7.4735215944       -5.1007681787       -4.2637694562
  O         8.4449894446       -7.2861314719       10.9998499733
  O         8.6384008158        4.7002278646        9.7186638206
  O        -5.9165164294       -8.4254966734        1.2437399615
  O        -8.6615455080        3.3251699891        7.8968416522
  O         5.9294176577       -8.3408460840       -0.5790880764
  O         6.8836350547       -8.0394938002       -5.9946228156
  O         8.8430549994       -7.4717533141        2.1815005242
  O         2.2438558004        6.2229567865        5.1209914764
  O        -9.6279185373       -6.2825692226       -3.6809555550
  O        -6.5244418038       -6.8587482713       -0.6961947630
  O         9.7855377410        6.7229119724       -3.3545633187
  O        -9.7292691428        0.9804280950        7.1563527695
  O         2.6017292846       -6.4523948573       -4.0524701465
  O        -9.6379718960       -3.7813260959       -4.6771293799
  O         9.3085336662       -0.2734919598        4.7516480817
  O        -5.5300553592        6.9443915267       -7.8338979683
  O        -2.6434832630        7.5391820414        9.0031266917
  O        10.4356079661        7.1268669851       -0.8115623453
  O         1.3663127947       -8.9962944424        8.1344216816
  O        -7.9720249047       -8.1082321405       -2.4707570213
  O        -8.1208106842        4.3544144634        5.4875135399
  O        -1.1885976586        8.5101004229       -3.4483574967
  O        -4.7952172251       -7.8975050735       -5.5173165146
  O        -4.4762676311        6.5620304593       -5.4081510157
  O         8.3095179791        8.0216273852       -1.8654054451
  O         2.6369301550        6.8663924086        7.6183925518
 Si         3.0295963478       -7.9160137797        4.9168578524
 Si        -6.6190492449       -5.6528549344        9.8948419555
 Si        -4.2444808599        6.4317090032       -6.9916792163
 Si         6.2801249870        0.8616393944        9.7333961803
 Si        -9.5187545090       -4.8543404753       -0.2035910505
 Si        -9.4626722780       -6.6249229553        6.0394536147
 Si         9.0712654756        6.8994546419        4.1374780844
 Si        -8.2785585755        7.3281832864       -5.8885557311
 Si         4.0524103903       -7.4104767036       10.1704130674
 Si        -3.1512709793        3.4278232106       -7.1556235901
 Si        -9.0500580053       -9.1177407055       -5.5485978583
 Si         6.0101115329        5.9183826546       -4.1310597123
 Si         3.3799667980        6.3961970679        6.2277156244
 Si        -7.4046297291        0.0513658562       10.8241325206
 Si         8.1466276708       -5.8623337529       -7.5694840473
 Si         6.1648212647       -6.9877591160        8.0214447177
 Si        -7.3013356328        9.6552078721       -2.4898965790
 Si        -5.0406510899       -5.4801580916        5.8610465473
 Si         4.3670973150        4.4503126156       10.4705137410
 Si        -5.0086555857       -1.6367195640       11.1034182930
 Si        -7.0883979960        6.8913122072        7.3514718964
 Si         2.4267344379        9.1576917775       -5.6170857226
 Si        -5.6616157421        5.8247542065       -4.5705790805
 Si         5.1664539038       -2.8840109651       -8.0386290718
 Si         6.9324978032       -9.6913874195        8.0202264381
 Si        -7.2866028356       -5.7373441438        4.0192871871
 Si         4.9886929443        3.0814848818       -4.9755921954
 Si        -1.8332761356        8.0977343178       -7.4315399214
 Si        -8.2588031460       -2.9982672333       -4.9982966603
 Si         5.1842306754        4.3284988579        7.6334996951
 Si         4.2139814879       -6.3453294067       -3.7887987387
 Si         6.8897518523        2.0504983132        6.9298805939
 Si        -8.7692717166        4.0817119155       -2.7247427779
 Si         9.1594382430       -3.7546182673        6.9489891909
 Si        -6.8847030183       -5.5497338475       -1.5535614555
 Si        -2.4302092894       -3.0613002455       -7.6660061071
 Si        -6.5827761395        6.4323456660       -2.1079530660
 Si         9.4083417485        3.6173007012       10.6068044266
 Si        -8.1692901779       -8.1132172818        8.5189969519
 Si        -2.8003650628        9.0807531007        9.1393073679
 Si         0.3931559972       -3.5204217813       10.2016764213
 Si         8.7345665072       -1.7655363669        4.3851151211
 Si        -5.1330391612        1.8217523481        7.0982547922
 Si        -6.9205639997       -8.3007973295       -0.0731754388
 Si         2.9117794372       -5.0731870067       -7.8614224047
 Si        -6.0181440103        9.1709148567        9.0625715405
 Si        -8.3932019345       -1.3925132430       -2.5303882452
 Si         5.5055533662        8.3581717599       -5.8658617182
 Si        -8.1324974383       -7.0324711597       -3.6232907076
 Si        -7.5648240959        8.1756065051        2.9570801501
 Si        -5.3737659179        7.9435072852        4.9739452768
 Si         0.3658228790        7.8048755811       -3.7166000265
 Si         5.9958946566       -7.6243378809       -2.0372516758
 Si         7.6910383363        5.8293989442        9.0244499959
 Si         8.9920857694       -5.2223948292       -4.7942567629
 Si         7.2704071918       -4.2458697354        9.5002045227
 Si        -2.0489806511        9.4692247296       -4.5192010776
 Si        -4.6328107910       -8.5641183518        5.3335549396
 Si        -0.7230487999       -8.7035031398       10.9438279756
 Si        -7.0109248032        3.1242280331       -8.4600017455
 Si         1.8530354790       -6.9660907238       -5.4418531742
 Si        -6.3651443050        8.2945672208       -7.5661550524
 Si         9.1601782298        5.8250368723       -4.5299115438
 Si        -7.5064926818        3.8937143786        6.9206127157
 Si        -0.8763307211       -6.2125187121        8.9824857502
 Si         9.0858994894        1.0403575008        5.5884511060
 Si         9.3895428100       -7.8570142700        0.6694544753
 Si        -5.1543514147        9.9919989582       -4.9554979329
 Si         0.1500553550        4.8320036209        9.1374673674
 Si        -2.6902259397        6.0216841716        8.3442226119
 Si         6.7724977940        3.3084418068       -7.6260588402
 Si         5.7311690632       -7.0789598691       -6.5456982659
 Si         2.7317007198        2.5038431659       -7.0008265036
 Si        -1.1319186067       -7.3590084247       -5.5887942618
 Si        -5.6654182140        2.8867528484       -5.6140899747
 Si         7.0287957994        7.1637950077       -1.4294388186
 Si         8.4549054446       -6.7085925255        3.5855388422
 Si         6.9868104176        8.4333765598       10.6997259527
 Si        -6.1056030749       -4.4524601974       -6.7982153382
 Si        -9.4515133780       -0.3424642100       -6.3296952257
 Si         0.7503280564       -7.9516522573        6.9747694384
 Si         8.2712613014       -2.6769546846       -1.6621787838
 Si        -4.3431734421        3.6168164558        9.5533645253
 Si         4.2753528505       -0.0026319298       -7.9119597583
 Si         0.6610924455        6.7970019430       -6.5216733739
 Si        -7.0655315103       -3.8000258471        7.7807592276
 Si        -2.4798582508        7.0539970309        5.4925077701
 Si         5.0482786471        9.0378422830        5.4795800849
 Si        -4.0065765517       -6.6628134805       -6.2804609091
 Si         7.3711380474       -8.9497947282       -4.6727186840
 Si         1.8665935244        9.8319839295        9.6571949918
 Si         6.7811313616        9.7696652732        0.1260892634
 Si         6.9731384143       -0.6334533739       -7.2925136556
 Si         0.0017167371        3.8253093715       -7.3902360864
 Si        -9.4833926211       -4.0791756711        2.7742792764
 Si        -3.5629859617       -5.6842929369       10.1700681058
 Si        -7.9989508568        1.4123314938       -4.1243660767
 Si        -7.7812575076        6.6198816974        0.2889001747
 Si        -6.3424889025       -8.4183299944        2.7824878897
 Si         6.4970968474        8.1434696004        2.8608900463
 Si        -1.7568624694        9.8951658924        6.4037761117
 Si         8.3366608511        4.4244692293       -0.4661733239
 Si         5.6611770202       -6.2112794549        4.9555136673
 Si         9.2520377838       -8.7033509199       10.9059894298
 Si        -9.8503416682        2.3283217544        8.1125909322
 Si        -9.3867043012        3.8986603254        4.4654507625
 Si        -6.2859250942       -1.0277387423        8.4928351720
 Si         9.2179215718        7.6875588180        7.1142192057
 Si         6.5186959661       -4.7632440276       -2.9138706417
 Si         9.8617308925        7.8207497415       -2.1626371848
 Si        -8.8635169036        3.7907280542        1.3740892088
 Si         2.5517606611        6.7005262839        9.2401559269
 Se        -2.4889945830       -1.5303659708        3.6545172550
 Se        -1.7677298648       -3.4497497277       -5.5019567995
 Se        -4.8822442397       -4.5515290199       -1.4731728117
 Se        -1.6854749103       -5.7895462220        2.4178457026
 Se         1.8054490402       -5.1502198352       -0.8347419784
 Se         1.8457753246       -7.9552955021        2.8877813954
 Se        -6.2728034745       -1.2192323288        1.9766142716
 Se        -4.0363605125       -0.6647409764       -4.5903107517
 Se        -4.8195756099        1.3688696010       -0.0610617739
 Se        -1.8601991419       -0.2988896503        8.4246847900
 Se         4.0703640916       -0.5884929070       -0.9237761831
 Se        -2.0615178719       -2.3915327194       -0.4185975640
 Se         1.4219202682       -1.8438750805        1.5249014501
 Se         0.6451537179       -3.6354204821        5.3712027751
 Se         5.4026185640       -4.7834662982        0.9595322680
 Se         5.6651778814       -3.9783888514        5.0546959044
 Se        -2.0092485701        4.3608663324       -2.1655762155
 Se        -4.1648992070        4.5162268819        2.4814895556
 Se        -0.6198650303        2.2305874784        4.5423097401
 Se         0.1593044106        0.6016149917       -3.0677822783
 Se        -0.6501901012        2.0142991952        0.6800035214
 Se         0.5762311054        5.3103701248        2.0305661958
 Se         1.1862542474        3.5814730240        7.6558917156
 Se         5.1511084334        1.0648685274       -3.9074876811
 Se         3.8617878948        2.3585594584        2.7991885239
 Se         1.7356576041        0.2448573211        5.4209715113
 Se         3.7907041131       -0.6201807993        6.3550821413
 Se         7.9858997838       -1.2675648041        0.1137587668
 Se        -2.3665341884        8.0308282321        0.6002101271
 Se         2.6499707488        8.5407253732        0.7406159634
 Se         2.9409411174        4.0885819993       -1.7305669703
 Se         5.3150718710        6.1551857410        2.4581806354
 Se         6.5830081156        3.1985123603       -1.2768869548
 Cd        -6.0956921421       -2.6291542577       -0.2384890841
 Cd        -4.3477477499       -3.1335455726       -3.5567370591
 Cd        -2.6164156065       -4.0616916814        4.0871143252
 Cd        -2.9698363814       -0.4923239799        6.0135731640
 Cd         3.7834283307       -3.3329420614       -0.4026442270
 Cd        -0.1625685977       -4.1168110503        0.4350208097
 Cd        -7.4450198721        0.7116084715        0.7048342147
 Cd         1.3357036903        2.7777642041        2.3679158781
 Cd        -3.5980956596       -1.0076195745        1.2452296900
 Cd        -0.4625150645        1.5528216428        7.1885187218
 Cd        -1.2635060341       -1.1735448773       -4.4204423690
 Cd         5.3847009805       -0.4672839220        4.2666154596
 Cd         0.4837918000       -5.9918828629        3.8275615070
 Cd         3.3262042011       -3.2463233336        5.2286431486
 Cd         3.9531789921       -0.4084394948        1.8339515586
 Cd         3.1342484765       -6.1356791144        1.2780807920
 Cd        -1.4083163813        6.7616285887       -1.5328903318
 Cd        -3.1204097205        3.4582592255        0.2221586534
 Cd        -3.2178000657        2.9376763651        4.2789152326
 Cd        -4.2675168404        0.5857455665       -2.3944348021
 Cd         0.3914088853        3.2868828327       -1.3972306141
 Cd        -0.2514005933       -0.4673741339       -0.3194226267
 Cd         0.3543173815       -1.4150781271        7.4557357186
 Cd         2.8037863819        0.4597922630       -2.9850777501
 Cd         6.6834376010        0.6463630328       -1.2223362324
 Cd         0.3583505010        4.9112444221        5.1658437420
 Cd         6.1217674833       -2.4439773936        1.9889972777
 Cd         0.1741606821       -1.3082038182        3.7618511518
 Cd         2.3393452319        6.4420846860       -1.0260961131
 Cd         0.1996730569        8.4997505219        0.8238357258
 Cd         2.7838984726        6.9039952705        2.9650436795
 Cd        -1.9762716685        6.0117976789        2.3094649118
 Cd         4.4560655460        3.3834922200        0.5054180478
