402
 i =     6500, time =    13000.000, E =     -5882.4126097009
  O         6.6696554537        1.6233218819       10.6002486163
  O        -5.4774934328       -3.5581617007       -7.4236833484
  O         9.0313812603       -5.8663752630        6.6923134615
  O        -7.7339973092        7.3071500909        1.3682364569
  O         1.6421734928        8.2690204553       -4.0729251707
  O         8.0063821808        7.0900940730        2.9906728195
  O        -6.0748149207        7.4638792987        3.5522145879
  O         5.1512643839        6.2319734317       -5.3481462826
  O        -8.0354756381       -5.5763289404       -0.6486248485
  O         8.7523208881       -3.2412807028        5.9114774685
  O         9.2328892467       -2.2165642949       -2.3345024313
  O        -3.2919209753       -2.2247800010       -7.5486566049
  O         8.3436802497       -1.1093176162       -6.4802137987
  O        -5.0915539721       -6.3046744295        9.6456073553
  O        -7.3819005212       -1.0052766529        9.3959517130
  O        -6.5607367218        5.8358156544       -0.4499445715
  O        -0.1814800723       -7.2065959020        7.6322825299
  O        -6.4306077952        1.0028042240       -4.8469892396
  O        -1.8423267623        7.9456861579        6.0801867388
  O         8.4509128108       -5.0974449949       10.9538823690
  O        -8.0878481757       -6.4431343174        5.4883927901
  O         6.7358818472       -7.4599033101        4.0597491970
  O        -8.8005483277       -0.6852159009       -7.7922704888
  O         3.7709402961       -9.7661690191        5.2752871798
  O        -7.8565750201       -3.1590213898       -3.2656068011
  O        -8.7665754347        6.8806693800        3.6215241767
  O        -3.3492164676        7.0855503752       -7.4965687334
  O        -7.1567429171        1.1659384297       11.0152343919
  O        -5.0973410098       -7.5151878825        6.3497960726
  O        -9.0135239819       -8.1600360425        7.3458927037
  O         0.4256501514        6.7131935133       -2.0051275202
  O         3.6016781336        2.5255167169       -5.6905573142
  O        -7.3511361241       -7.4660499758        3.1406021105
  O        -3.7851783760       -7.2643032471       -7.7827830415
  O         6.6961208227       -9.0391830182       -3.1629273838
  O        -7.0569370308       -4.5968675574        9.3260758210
  O         8.7051634172        5.8577829030        7.7401688113
  O        -4.0660358417        2.0556287846       -5.9830567950
  O         4.8347490644       -5.3257064260       -3.4475510546
  O        -7.0593815321        5.8816187058       -5.0427473905
  O        -5.8894396078        3.2927742272       10.0945548164
  O        -1.9714446343        9.4666641803        8.1386008584
  O         5.6555310025        2.4325215292        6.8899118310
  O         4.3662501692        3.4781362274        8.9859704805
  O         9.5112738882        1.6839999607        9.8150349875
  O        -2.5747099967       -6.5828502633        9.1377509892
  O        -7.8442715756        7.1993087608       -7.1626126307
  O         4.5786666481       -0.1103130072       10.1609369310
  O         6.3873523126        8.3335524863        9.1754502061
  O        -0.0517422527        3.2134838059       10.5590197753
  O         6.2110600542       -7.3042181172        6.6027188128
  O         4.9465210350       -7.2055775158       -5.2022098287
  O        -3.4075001740        4.4901390743       -7.1594559649
  O         2.5060226059        7.8658358376        9.6984496618
  O         8.3023299151        3.3137906244       -7.5772940419
  O         0.6079876881        4.7461802457       -6.6435062314
  O        -8.5582798911       -2.2313498906       -5.8118683984
  O         9.2750411903        2.0391068373        4.8905594563
  O        -4.9147996523       -5.8069326194       -5.8241615044
  O         4.4075611862       -7.9155973075       -2.5829703527
  O        -8.4206727021        8.2982200462       -5.0138165881
  O        -2.0240249624        8.9772875205       10.8138043250
  O        -6.3284076346        7.3170104578        8.5824183191
  O         3.2126357986       -6.3857697737       10.2061656805
  O        -7.8970663318       -1.8582862708       -0.7820395587
  O        -6.1879615314       -5.1670119007        6.9678857820
  O         0.2025828040       -7.1508808578       -5.2123361095
  O        -7.0005738111       -4.3294595331       -5.3670543140
  O         6.4237391061        0.2463116023        8.3272981756
  O        -9.2035261204        0.3367184212       -5.2529689526
  O         4.2170876977       -4.6873705481       -7.3153538301
  O        -9.6517611835       -4.7045009039        1.2707664520
  O        -8.3221511034        4.7065161309        1.2222491226
  O         4.3913206052        4.5672198273        6.5642553347
  O        -6.8110126699      -10.1245794872       -0.8728605661
  O        -6.9119785195       -9.5194267556        8.5360171953
  O         4.2283345932        7.1071719292        5.9372938899
  O         6.4199547945       -2.8599858309       -6.9982933725
  O         3.1036224824        2.9828819773       -8.1529307434
  O        -1.4316620770        4.7466406931        8.9160774839
  O         7.0837276663       -6.1093106815        8.8478651171
  O        -5.4284962612       -0.0622467990        7.8690262480
  O         9.7028900355        3.7429400703       -4.3331174445
  O        -5.7115302026       -5.7550512207        4.4531294151
  O        -7.6965791390       -9.9655272908        3.2593328154
  O         7.3391751471        0.6175293658        5.9089990080
  O         9.3301405600       -3.0908681354        3.4796916246
  O        -0.7046994533        6.7473347743       -7.3261259129
  O         7.3500242908       -8.7606661018        8.4080816942
  O        -7.8139537106        4.4508181453       -2.4459519256
  O         9.0752964407       -4.6623413730       -1.2697262993
  O         5.9169757858        6.1412636339       -2.7546078962
  O         8.9764070046       -6.4639811612       -6.1301890027
  O         6.0792723687       -4.0002353277       10.1317484309
  O         6.0187181362      -10.5017408628        6.6883773502
  O         8.8563024355        3.4094629634        0.7557281867
  O         8.4818533125       -3.9941167404        8.4878913244
  O        -4.8035737274       -2.0453584174        9.6377387957
  O         6.2185486145        2.2573586158       -6.2720673046
  O         6.3436756566        8.7913778863        1.7062378104
  O        -6.2383068447        8.7278788599       10.7910598730
  O         1.5802539830        7.4515328767       -6.4196399188
  O        -7.5428289096       -7.2011568457        9.4406259199
  O         7.0914322768       -2.0102537836        3.9873376858
  O         4.1161992187       -7.1309761357        4.8327328579
  O        -7.3048858923        4.9933286600        7.5883694188
  O        -8.3719580943        1.9399738304        0.6350538737
  O         5.0213572381       -7.9293537408        8.9551296794
  O         9.1444328508       -6.9821162453        0.0032729263
  O         9.1081878677       -7.8558768491        5.0618882959
  O         6.5661889568       -6.6189221077       -2.0218787406
  O         6.9223916593       -3.8715147209       -2.3196410097
  O        -0.3796121528       -9.3375350319        6.1144170874
  O         9.7336774029        5.9793801635       -6.0786807295
  O         7.1566685722       -1.0111282977       10.5854778084
  O         0.6761624812       -9.9602867539       10.8655810411
  O        -2.6122941403       -7.0172144320       -5.4460310303
  O        -1.9716464816        8.4186729833       -5.7832850052
  O        -3.8945820762        4.7827551356        9.2597442039
  O        -7.1081276501       -6.3071608160       -3.1136337335
  O         7.5546873445        5.1173436107       -4.6916987388
  O         2.9332905880       -9.0053058310       10.2097531850
  O        -1.0494055099       -8.6428640907       -6.8250210924
  O         6.5081643883        8.3141416771       -4.8290224801
  O         5.7485219783        8.1772735354        4.1437651087
  O        -0.6195485053       -7.8743524042       10.0876551979
  O        -8.5303809292        7.4029782626        7.2304671897
  O        -0.8331167347       -3.4286617889       11.0163294547
  O        -8.4792743982       -8.7563006725        0.6712184318
  O        -5.5051014083        3.5072619985       -4.4201525504
  O         8.1195080332        2.1751884934        7.7368412620
  O        -5.5004136192        5.5311776680       -2.9181004716
  O        -0.2195147129       -5.4122756165        9.5289408807
  O         8.3152082877       -9.5670071190        0.2206883874
  O         6.3934022211        7.7562026821       -0.6559779250
  O        -6.2028359426        9.2726855802       -3.5881364867
  O         8.7416028530        7.1434782913        5.4572512554
  O        -3.9305619085        6.8010869932        4.8617144943
  O        -4.0397674634        1.1545023275        5.8671842331
  O        -5.5768506689        8.4270022269       -6.0544477755
  O         8.8267350787       -9.5085943371       -4.5883216419
  O         7.5483338176        6.3203288869       10.2966301557
  O         1.8770999362       -9.1513193410       -5.7006052080
  O        -7.4905933008        7.2262800432       -2.3764406326
  O        -5.9748885851       -0.9505326837       -7.5949749593
  O         2.0211658417       -7.8907137347        6.2814277187
  O         6.6024697493       -6.3074417056       -7.1127844779
  O        -8.3204274276        1.8919580860       -3.1510527024
  O        -5.1300787713       -8.6792730601        3.9041195469
  O         8.6510364029       -5.7523120910        3.4030709867
  O         3.8896150043        8.6070569608       -5.8814556076
  O        -8.1657271343       -8.3160082102       -5.0387448688
  O         3.0928349149        0.4208142661       -7.1576768344
  O         6.3921463389        4.9154383075        8.2226027832
  O         5.6210515533       -0.4564272189       -6.7104888324
  O         2.4398118582       -6.8169316914       -6.7829336122
  O        10.3239942187        8.7746421051       -2.2787555737
  O        -8.8871066762        2.9586310514        2.9044774763
  O         4.8593974572       -8.0970229045       11.6111144410
  O        -6.4867215003        3.1163479660       -6.6831672811
  O         5.8441527329        7.8539953441       -7.4983145088
  O        -9.2877269297       -9.3753202815        9.6562773901
  O         3.9545457537       -2.2435846263       11.6502410712
  O        -8.0988732933       -4.9539917518        3.2183945266
  O        -3.7941402316        8.8664810957       -3.9617394252
  O         3.5270928887        5.5035787351       10.4076318582
  O        -6.3031774305       -2.5843189307        7.5655391430
  O        -5.1633291461        9.0118004806        5.8444361217
  O         7.4575997472        5.1716418870       -0.7902330344
  O        -6.2792561831        2.4521160718        6.8700727380
  O        -0.0009208216        6.3452161114       -4.7003884631
  O         5.6544656375        4.0799303667       -8.2042122633
  O         5.3321785202        3.9295058588       -4.1892111827
  O         9.1332922466        3.3298396443       -1.8372512784
  O        -2.8215351748        5.6374668896        6.8651734893
  O        -1.5437957038       -8.9858347781       -4.1601660513
  O         1.2484388381       -3.1635887793        9.1495385256
  O         1.5376443560       -4.6136821056       11.3386723494
  O         8.1580107933        8.8756265988       11.1648253858
  O        -1.5221914699        2.8040769343       -6.5686177818
  O        -9.1794708105       -9.5759403495       -7.0334742844
  O        -3.0752080316       -8.9813823347        5.7887403618
  O        -7.8998992495       -0.6450952654       -3.2253225594
  O         9.1309175956        4.8102454530        4.1778426174
  O        -4.3865034382        9.1041167946        9.1033687527
  O        -3.3543614569        2.5201744515       -8.6091398686
  O        -1.4952105206        5.6932611451        4.6326317483
  O         1.0843951874        2.1351266875       -6.6068844056
  O         8.5351656172        8.5341333666        7.6244254310
  O        -3.1115245602       -4.8078968625       10.9889493879
  O         1.0293126523        5.5794801115        9.7413439290
  O        -6.8500254418       -5.6672693908       -7.7911795493
  O        -8.5188709801       -3.8995414394        7.0788618042
  O        -6.3305714648        6.7911923742        6.0057822595
  O        -3.5781806696       -5.2549679957        5.9764222938
  O        -4.1645827351        2.2368914241        8.2773745532
  O        -8.4398163584        3.3931568221       10.9915889323
  O         7.4677924395       -5.4533890208       -4.2139913352
  O         8.4827182062       -7.8502740657       11.0229800588
  O         8.7234689233        4.1503135465        9.5080010335
  O        -6.0976771905       -8.9346606920        1.4452527790
  O        -8.5710570360        2.7902947403        7.9830638780
  O         6.0238074488       -8.9682535638       -0.5654963795
  O         6.7254864170       -8.7647512217       -6.0097041874
  O         8.9606530637       -8.1715613643        2.3834622292
  O         2.1885352992        5.6472180821        5.1721016069
  O        -9.5882074897       -6.6146691078       -3.5923702939
  O        -6.3979649298       -7.4581389244       -0.5847589063
  O         9.8182629018        6.1687211374       -3.4766514728
  O        -9.5819696072        0.5554781302        6.9819506264
  O         2.5896032554       -6.8943444173       -4.1033477459
  O        -9.6410435663       -4.3312285878       -4.8819953355
  O         9.3745175064       -0.7409214456        4.7862655264
  O        -5.6121116592        6.2568131367       -7.6804269347
  O        -2.6648664476        7.1381268226        9.1682676966
  O        10.1466502085        6.3229601666       -0.6706318297
  O         1.3133712029       -9.4915803737        8.2044154405
  O        -7.8673210773       -8.5470097534       -2.4693238074
  O        -8.1378185500        3.6625107966        5.4413828946
  O        -1.2294922560        8.1139247223       -3.2924668207
  O        -4.8222018238       -8.4770446478       -5.4139546006
  O        -4.4615960323        5.8562380732       -5.3321749585
  O         8.3036768245        7.2939183843       -2.1126348842
  O         2.7063822431        6.0248586791        7.7771560824
 Si         3.0057944504       -8.3794889823        5.0280864230
 Si        -6.6272727495       -6.0169165499       10.0284785993
 Si        -4.2705991722        5.8593740928       -6.9474271429
 Si         6.2827915642        0.1693823093        9.9145788345
 Si        -9.5904624302       -5.4868985994       -0.0872881821
 Si        -9.3799151430       -7.0748735976        6.1859644230
 Si         9.0564173303        6.4543219310        4.0407451483
 Si        -8.2592649990        6.8170178066       -5.6896959640
 Si         4.0175358908       -7.7970805776       10.2411370409
 Si        -3.0845742997        2.8975201372       -7.0277278504
 Si        -9.1026294850       -9.6426850560       -5.3780749769
 Si         6.0147223008        5.3751386277       -4.2072653917
 Si         3.3222640433        5.7822870942        6.2504968961
 Si        -7.3503893978       -0.4546546752       10.9766879081
 Si         8.2072460750       -6.4469513111       -7.5186151223
 Si         6.4181320005       -7.4641810014        8.2362469678
 Si        -7.4402662717        9.1215049738       -2.4177899930
 Si        -5.0585329200       -5.8339664535        6.0050649698
 Si         4.1799641785        4.0146368412       10.5378159648
 Si        -4.9078052420       -2.2093077760       11.2792484296
 Si        -7.1240326885        6.5876032950        7.3357005206
 Si         2.2575580904        8.6307054890       -5.5590603630
 Si        -5.6498079377        5.1302490236       -4.4688326483
 Si         5.1268720678       -3.4502672911       -7.8497598410
 Si         6.9877100640      -10.2689621159        7.9303901171
 Si        -7.2434851681       -6.1110747684        4.1403583166
 Si         5.0710759305        2.5699249507       -5.0632798738
 Si        -1.9415522960        7.7523083689       -7.2528950201
 Si        -8.2318589871       -3.4871078906       -4.8662409226
 Si         5.2943540241        3.8466776179        7.6459025487
 Si         4.2075842477       -6.8591578725       -3.8059206444
 Si         6.8064540769        1.3892345945        7.1819752142
 Si        -8.9506320261        3.4017061784       -2.8481074000
 Si         9.2134957741       -4.2636977095        7.0947543251
 Si        -6.8061034732       -6.2228675129       -1.5766171993
 Si        -2.3016541639       -3.5960005120       -7.6127311116
 Si        -6.8104987056        5.7935282707       -2.0467102200
 Si         9.3887845624        3.1508813110       10.6001748597
 Si        -8.2110255038       -8.5637711465        8.7444170757
 Si        -2.8241721513        8.7201457588        9.2767598826
 Si         0.4874840145       -4.0932662916       10.1544825821
 Si         8.5811784517       -2.2326238216        4.5950914995
 Si        -5.0062593555        1.3962992908        7.1669891457
 Si        -6.9385449855       -8.8455878182        0.0763572421
 Si         2.8197770517       -5.5187822034       -7.7696578263
 Si        -6.0194146264        8.7408181489        9.2084519684
 Si        -8.4661558173       -1.9347225085       -2.3026588194
 Si         5.3458983775        7.7265748467       -5.9069397247
 Si        -8.2215867497       -7.4819130928       -3.5878371368
 Si        -7.6032889165        7.7753320349        2.9323569746
 Si        -5.3995513647        7.5887456226        5.0208655951
 Si         0.3175177777        7.3682906199       -3.4728788354
 Si         5.9866795669       -8.1955172458       -1.9945976356
 Si         7.7523189588        5.3338494528        8.9771831725
 Si         8.9841906657       -5.6955175033       -4.6391578322
 Si         7.4656972101       -4.7187422968        9.6086833359
 Si        -2.1888742553        8.8858359619       -4.2751432743
 Si        -4.7078584321       -8.8553336052        5.4707685236
 Si        -0.6354613345       -9.1161104311       11.0894290759
 Si        -7.0020352950        2.7493788815       -8.2618977456
 Si         1.8645475403       -7.5557089953       -5.4572048215
 Si        -6.2980678718        7.6581313931       -7.3722832568
 Si         9.1915450511        5.1954275849       -4.7014612543
 Si        -7.5643542358        3.4608218872        6.9437972594
 Si        -0.9043588128       -6.6981137068        9.0085223618
 Si         9.0140006988        0.6255960461        5.5901919591
 Si         9.3436280903       -8.4546204445        0.7464549382
 Si        -5.1174674311        9.3296918716       -4.7685027898
 Si         0.1330073272        4.2660117644        9.3268782904
 Si        -2.6928778021        5.6181787904        8.4754256391
 Si         6.6641598419        2.8282640955       -7.6747943466
 Si         5.7560514334       -7.5671015738       -6.5529241746
 Si         2.6728275106        2.0112735096       -6.9347197694
 Si        -1.2190595358       -7.9532725807       -5.3300736564
 Si        -5.6718822973        2.3391577463       -5.5325821685
 Si         7.0501424882        6.5097419644       -1.5448541522
 Si         8.3951905955       -7.3351326124        3.6697156433
 Si         6.9646424358        7.8599060097       10.6820910916
 Si        -6.0895353995       -4.8261372612       -6.6421165329
 Si        -9.3503967306       -0.9552498844       -6.2990859156
 Si         0.7071317246       -8.5110302910        7.0645255859
 Si         8.2427797565       -3.2886628221       -1.5458686158
 Si        -4.2939460850        3.2169488486        9.5480807856
 Si         4.2739282339       -0.6081068915       -7.6903261462
 Si         0.4593704518        6.2788134391       -6.2374045748
 Si        -7.0425356122       -4.0533726314        7.7414188547
 Si        -2.4514755863        6.5353633799        5.5670983718
 Si         4.9569721872        8.4286277967        5.4895962408
 Si        -4.0591000869       -7.2320754756       -6.1104872411
 Si         7.1762631847       -9.5553986628       -4.6539554842
 Si         1.9001245590        9.3647927270        9.6454652096
 Si         6.8217058917        9.1479231343        0.1213686031
 Si         6.9760270788       -1.3623138985       -7.1990460417
 Si        -0.0212577934        3.2782114732       -7.1204257925
 Si        -9.6674764407       -4.5996662014        2.9499090494
 Si        -3.6142240428       -6.1991126745       10.3633319207
 Si        -7.9596912059        0.6708705776       -4.1803205940
 Si        -7.9944528598        6.0700660462        0.3601551739
 Si        -6.4897304426       -8.7978800947        2.9462007275
 Si         6.4296231052        7.5295884031        2.7608399462
 Si        -1.8767834352        9.5280865604        6.4634228790
 Si         8.1086228060        3.6815850486       -0.6468502931
 Si         5.6851589988       -6.7850715420        5.1568075461
 Si         9.2626336511       -9.3344790909       11.0246254821
 Si        -9.7566703785        1.7314080612        8.1677939319
 Si        -9.3609266489        3.4244802308        4.3863458191
 Si        -5.9758487272       -1.3888178532        8.6160762872
 Si         9.2241862164        7.1833229556        7.0536593823
 Si         6.4386520604       -5.2953037885       -2.9490522953
 Si         9.9446609114        7.1639034942       -2.1329944660
 Si        -8.9302952854        3.2306193203        1.3102136752
 Si         2.4539959467        6.2224626351        9.3461772493
 Se        -2.4252027827       -1.6657969352        3.5733791246
 Se        -1.5821201091       -4.2234422345       -5.4685086891
 Se        -4.9489533540       -4.8535853538       -1.3430361822
 Se        -1.9685096078       -5.9391180320        2.4438260049
 Se         1.5129322672       -5.5616542834       -0.5682300929
 Se         1.6633009178       -8.3533431687        3.1746871556
 Se        -6.3794123764       -1.9160287422        2.1877779303
 Se        -3.9002313672       -1.4817201145       -4.2938084756
 Se        -4.8710612304        0.9157127525       -0.0865266633
 Se        -1.7851643821       -0.6788947264        8.2779814448
 Se         3.8145738094       -1.2990038229       -1.0554892143
 Se        -2.2391526065       -2.7173867551       -0.6231273908
 Se         1.3843478290       -2.4214473644        1.6864900374
 Se         0.8784552599       -4.4117932206        5.5407447037
 Se         5.3122761898       -5.4137514473        0.9902953167
 Se         5.6775197658       -4.5605770431        5.0496239060
 Se        -1.9664585475        3.9665167136       -1.9415975494
 Se        -3.9984476534        4.2234816092        2.3386071812
 Se        -0.8802653861        1.6351175374        4.8645693507
 Se         0.1723502475       -0.1142507098       -2.9087555642
 Se        -0.9214263049        1.3253587097        0.9239837981
 Se         0.7691171539        4.8084882967        2.0832308529
 Se         1.4256832159        3.1789326172        7.6969915443
 Se         5.1641157082        0.6969788798       -3.7600818731
 Se         3.3866373461        1.6575158727        2.6518707832
 Se         1.6502599091       -0.4672395280        5.8298200812
 Se         3.8366625462       -1.4108462176        6.5475914893
 Se         7.8465785592       -2.2004454324        0.4106185612
 Se        -2.1836925620        8.1075599835        0.7805211392
 Se         2.8717639500        8.1303353069        0.7749299489
 Se         2.6226726193        3.7111468243       -1.5457010703
 Se         5.4063068394        5.5604259248        2.3361335857
 Se         6.3494916614        2.2470146026       -0.9354710284
 Cd        -6.4709309161       -3.3207691530        0.0161945792
 Cd        -4.0324094511       -3.9926939434       -3.8637067796
 Cd        -2.8441983481       -4.2488236426        4.2474229614
 Cd        -2.7469425360       -0.6498148191        5.8244640745
 Cd         3.5153661293       -3.8283491239       -0.4729999332
 Cd        -0.5169303531       -4.5043620305        0.8564914114
 Cd        -7.4062524494        0.0345863844        0.7082357966
 Cd         0.8238725924        1.9179945970        2.7330161605
 Cd        -3.9829974349       -1.5662865720        1.0396654644
 Cd        -0.1691204406        1.2599626388        7.4924098427
 Cd        -1.0492423783       -2.0114384456       -4.1304769962
 Cd         5.0445362876       -1.1079029074        4.1899829225
 Cd         0.2110555889       -6.2558986126        3.6116129911
 Cd         3.3820564561       -4.0899503959        5.8637283252
 Cd         3.6722777586       -0.8672302374        1.7508779680
 Cd         2.9967586070       -6.4698506348        1.3542297624
 Cd        -1.7564862092        6.3777292180       -1.0752297110
 Cd        -3.1543288386        2.9992858862        0.1549739023
 Cd        -3.3017664231        2.4319851923        4.1939942705
 Cd        -4.3079935026       -0.1485905784       -2.2828469236
 Cd         0.1228508167        2.9266485619       -0.9530685181
 Cd        -0.0616286821       -0.9660434178       -0.2836157668
 Cd         0.2258930733       -2.1647625722        7.5692417923
 Cd         2.7690054296        0.1719271057       -3.2148543638
 Cd         6.3204448096       -0.3182336548       -0.5949800690
 Cd         0.3453052374        4.2733958880        5.0261320261
 Cd         5.7473536561       -3.0857947043        2.4141803593
 Cd         0.3954254017       -2.1973244689        4.0222184112
 Cd         2.3832280763        6.0215335527       -0.7810010905
 Cd         0.2754302024        8.4243189087        0.6859521733
 Cd         2.9412921738        6.0579251174        2.8915378813
 Cd        -1.7614686916        5.7415326044        2.3399441989
 Cd         4.0993942650        2.9251585315        0.3678111090
