402
 i =     6400, time =    12800.000, E =     -5882.4217174143
  O         6.4573558951        1.6231809496       10.5225259444
  O        -5.3615688627       -3.7379410285       -7.4283414034
  O         9.0609572552       -5.9341629582        6.5847742590
  O        -7.4892207537        7.3275750348        1.4583694978
  O         1.5406375591        8.2940967494       -3.8960110072
  O         8.0669100065        7.0363722104        3.0293337137
  O        -6.0465647786        7.1381570273        3.6956073543
  O         5.2499444988        6.2162275109       -5.3268060127
  O        -7.9314269723       -5.6303120554       -0.5925330611
  O         8.7041758173       -3.2256943783        5.8727059777
  O         9.2218277191       -2.3588819297       -2.2483226390
  O        -3.3332125361       -2.2906806704       -7.5986255869
  O         8.3195803119       -1.0632909471       -6.3252299372
  O        -5.0349910833       -6.2173833988        9.7122320309
  O        -7.3619263852       -1.4647449173        9.3899224440
  O        -6.5113320658        5.5518171553       -0.3850773098
  O        -0.0665358339       -7.2332838345        7.7049167085
  O        -6.3739643621        1.0641948661       -4.5492104662
  O        -1.5608815077        7.6209602294        6.0953302568
  O         8.0053067803       -5.1865207624       10.6441711701
  O        -8.0538548663       -6.7349007760        5.2778014203
  O         6.6927983474       -7.3128857883        3.9849602921
  O        -8.6788490630       -0.8374882956       -7.7013451906
  O         3.9282566776       -9.7875205215        5.2107387640
  O        -7.7125317137       -3.2042752533       -3.2116311324
  O        -8.8042727151        7.0876969186        3.7828101214
  O        -3.0226541693        6.6411115580       -7.4347493612
  O        -7.3152968390        0.9706752102       10.5030319944
  O        -4.9256636199       -7.7779004041        6.2144688548
  O        -8.9559963072       -8.1966486673        7.1988686814
  O         0.5555403210        6.6284247283       -1.9485478404
  O         3.2800104677        2.4043171987       -5.4171495326
  O        -6.9731839592       -7.5137954546        3.0216939630
  O        -3.8152534857       -7.4677432600       -7.8317532412
  O         7.1318914531       -9.1370959483       -3.0090707160
  O        -7.2895815111       -4.7123766295        9.1396597338
  O         8.4328246871        6.0290409758        7.9513451268
  O        -4.0140513801        1.9053605391       -5.8759602642
  O         4.8830974241       -5.5493575870       -3.2370959760
  O        -7.0453956955        5.7998130792       -5.0333342906
  O        -6.0475050223        3.1910270214       10.3067600587
  O        -1.9385486641        9.1044226514        8.2308344049
  O         5.4778181931        2.4174639301        6.9695836127
  O         4.1665068013        3.4101650693        8.9201799589
  O         9.3614184138        1.6931623310        9.7033936753
  O        -2.4823251720       -6.6230773616        9.2258631023
  O        -7.7601782529        6.9526310821       -7.2470341405
  O         4.6573546531       -0.0498119820       10.0251210145
  O         6.2103522014        8.5016939248        9.2974211362
  O        -0.0971352704        3.3646310008       10.6134133373
  O         5.6314414631       -7.4561115615        6.5444522765
  O         4.6966231139       -7.1164858375       -5.2436561823
  O        -3.6939613420        4.3118287819       -7.0298585470
  O         2.5096146389        7.8742104633        9.8867627515
  O         8.2121456998        2.8979134078       -7.4373960955
  O         0.6872208885        4.5975679251       -6.6557038587
  O        -8.6177670869       -2.2161753097       -5.5518679600
  O         9.1564960298        1.8776720532        4.8233250928
  O        -5.0699769322       -5.8682181934       -5.8959543229
  O         4.6397326667       -8.1493786206       -2.6936815374
  O        -8.4535068044        8.1422670279       -5.1011582544
  O        -1.9744634839        8.7695454335       10.7937650752
  O        -6.3402568295        7.2298532233        8.6916460405
  O         3.1092056542       -6.5632528548       10.5050900180
  O        -7.8872829273       -1.6954124010       -0.8723143929
  O        -6.2052128432       -5.4781415409        6.9678396382
  O         0.0537145330       -7.1855212567       -4.9279959118
  O        -7.1241903791       -4.3291030039       -5.5457124563
  O         6.6221069236        0.3040187284        8.2085573433
  O        -8.9200575225        0.4945868463       -5.4316341795
  O         4.0457911438       -4.6261553408       -7.1587786155
  O        -9.5546029958       -4.6300017914        1.2191535178
  O        -8.2517150295        4.7414938952        1.4537449643
  O         4.4014359229        4.6377940084        6.5323472535
  O        -6.8305939773      -10.2826106827       -1.0356182349
  O        -6.9854973927       -9.6166407619        8.4042693027
  O         4.3773460419        7.1075051906        5.7785296496
  O         6.4484822533       -2.9247693419       -7.0973296629
  O         3.0839802227        3.0530652748       -8.0482720394
  O        -1.2794936224        4.7891790932        8.7832410096
  O         6.4994013029       -6.0016577194        8.6042622624
  O        -5.5574751792       -0.3747506106        7.6938539608
  O         9.6952661484        3.5338903169       -4.3353588209
  O        -5.7299777254       -5.7416535581        4.4583529284
  O        -7.3757691500      -10.0607388062        3.1857451083
  O         7.1525270982        0.5692984482        5.7252364833
  O         9.6128898758       -3.1215266265        3.4290107300
  O        -0.3810344234        6.8564874858       -7.5120072041
  O         7.2670016650       -8.6307647345        8.2950775582
  O        -7.5857792359        4.1053634598       -2.4110149198
  O         9.0685433649       -4.7284165860       -1.1809646161
  O         6.0532151082        6.1012401372       -2.7181238066
  O         9.0525573180       -6.0164504655       -6.3719705401
  O         5.6461480604       -3.9384268581       10.0009418188
  O         5.9280049630      -10.4127612851        6.8204563863
  O         8.8266088793        3.3971946296        0.9731451432
  O         8.1102964867       -4.0330147742        8.2550873991
  O        -4.9328195271       -2.4229592796        9.5474626923
  O         6.0465576939        2.3995747828       -6.1607281575
  O         6.4402572123        8.6749094218        1.7289855809
  O        -6.3813974264        8.7294210210       10.8118449682
  O         1.7914290427        7.3954141389       -6.4093847612
  O        -7.6079325447       -7.2394587715        9.3126953074
  O         7.1081237832       -2.0290795139        3.8247406319
  O         4.0507007053       -7.3111955881        4.4283992516
  O        -7.1329530180        4.8077607738        7.7343823919
  O        -8.2512192059        2.1212131474        0.4398967252
  O         4.8828277442       -7.7676490250        9.0709547529
  O         9.2733398530       -7.0772707761        0.0945527307
  O         9.1920306192       -8.0816485074        4.8989821501
  O         6.8265604748       -6.7770373145       -1.9405926903
  O         6.9010917743       -4.0615280763       -2.0855927348
  O        -0.2762158599       -9.4112694852        6.2656345240
  O         9.8115578904        5.6806372161       -5.8994735374
  O         7.2150223000       -0.9218194793       10.5823282825
  O         0.6110456812      -10.1279285871       11.0019465211
  O        -2.6551073167       -7.0217604655       -5.6685030571
  O        -1.8071951484        8.4151827275       -5.8750387570
  O        -3.8813500050        4.3548275084        9.2778277393
  O        -7.4128476511       -6.4728824429       -3.1610067293
  O         7.4928556930        5.1284306620       -4.6877423198
  O         2.9276596461       -9.0380012988       10.0760509871
  O        -1.0102826001       -8.6480064443       -6.8195647737
  O         6.4686536855        8.3476737774       -4.7255434226
  O         6.0489394615        8.2413621275        4.2340246081
  O        -0.8284887391       -8.2651120867        9.9759965903
  O        -8.6300173834        7.1284927575        7.3281860681
  O        -0.8833693266       -3.4163594572       11.2609254186
  O        -8.4508497213       -9.0115254147        0.7665067072
  O        -5.5660130831        3.5772260916       -4.6004560847
  O         8.0013551617        2.4541986380        7.4878771405
  O        -5.3510423540        5.4835733782       -2.8966084873
  O        -0.0153007235       -5.5884415788        9.8029101101
  O         8.3915071152       -9.5993269086        0.1323632229
  O         6.3348040963        7.6678702148       -0.4717691792
  O        -6.3085740608        9.1551636332       -3.7196267038
  O         8.6786781734        6.8446942886        5.5315234102
  O        -3.8831101321        6.9213895152        4.8865732317
  O        -4.1128569447        1.2920343990        6.0405783271
  O        -5.5205081459        8.3664046934       -6.2240538514
  O         8.8174497340       -9.7994072521       -4.9536848075
  O         7.2608862314        6.3880403723       10.3015464008
  O         1.8158576046       -9.1742155425       -5.7088255063
  O        -7.5135986386        6.8197053179       -2.3935952995
  O        -6.0190371093       -1.1778117233       -7.8621197473
  O         2.0968993177       -8.0063266449        6.2882094499
  O         6.5264689665       -6.4464660600       -7.0124323628
  O        -8.4924412726        1.7586604713       -2.9411568158
  O        -4.8636225859       -9.0456371341        3.7896216244
  O         8.8483212506       -5.8417025971        3.3914881670
  O         3.8772248179        8.6083440394       -5.5637561713
  O        -8.1638909715       -8.5120447673       -5.1814292691
  O         3.0838262254        0.4052626694       -7.3161962464
  O         6.3023849833        4.7256688535        8.3546445702
  O         5.6258221742       -0.4682404687       -6.8805989036
  O         2.2164170989       -6.6606647376       -6.4780894953
  O        10.2900135371        8.4876339759       -2.4264043798
  O        -8.7514032750        2.7489040890        2.9723898281
  O         4.7230431176       -8.2408484255       11.7696304616
  O        -6.5107727281        2.3104427158       -6.7607339968
  O         5.9058387584        8.0235016571       -7.3561346891
  O        -9.3826334324       -9.2198043039        9.5223920141
  O         4.0798912868       -2.1343786439       11.3515604189
  O        -7.9382734864       -4.9839001093        3.3812701570
  O        -3.8210855081        8.7180102028       -4.2346291734
  O         3.6004859766        5.4837053437       10.3777159808
  O        -6.3564982584       -2.9298547520        7.3988909588
  O        -5.3976878196        8.9716900264        5.8521073099
  O         7.4202650922        5.0691893799       -0.6702009669
  O        -6.3844683038        2.2883766960        6.8421128194
  O        -0.0521083558        6.2862849205       -4.8178069572
  O         5.6840490882        3.9191567467       -8.2627931871
  O         5.2481381998        3.8889745320       -4.2049937435
  O         9.2298327632        3.3936423834       -1.7103672779
  O        -3.2569591189        5.6449894626        7.1027404569
  O        -1.6973945069       -9.0243781130       -4.2721172140
  O         1.0198838942       -3.1620654764        9.3990648188
  O         1.5422186609       -4.5224366550       11.6205831617
  O         8.1834582749        8.7859477528       10.9083805082
  O        -1.5287602852        2.9747893255       -6.6882926793
  O        -9.1728470054       -9.7256947760       -7.2220692904
  O        -2.8839351207       -9.4864751616        5.7532409298
  O        -7.9274289984       -0.6946339269       -3.2906225537
  O         9.1500058179        4.6444268779        4.0770840871
  O        -4.4646856443        9.0544804307        9.1513879105
  O        -3.5064196746        2.2140172209       -8.4277069924
  O        -1.5662275729        5.3574505513        5.0108112633
  O         1.0649027217        2.0204498906       -6.8803738401
  O         8.4346276117        8.5378548351        7.6200257420
  O        -3.0094965161       -4.9270014543       11.1913962548
  O         0.9481456436        5.7076692930        9.6402018586
  O        -7.0118749769       -5.7334862214       -7.8469559255
  O        -8.6446029360       -4.1419266681        6.9744879577
  O        -6.3602175351        6.5241652365        6.0831421165
  O        -3.6503107816       -5.3696374859        5.9769332603
  O        -4.4769794283        1.9464411432        8.5581176551
  O        -8.6428304503        3.2936949290       11.2091483554
  O         7.3812451008       -5.5340880200       -4.3637107683
  O         8.5665545085       -7.8099897587       11.2095493951
  O         8.5891753200        4.2565906663        9.7887577603
  O        -5.8980784185       -9.0829296453        1.1953151917
  O        -8.7468350163        2.8041660565        7.9228074351
  O         6.0386108977       -9.1429768942       -0.6517386298
  O         6.6592764247       -8.6342156267       -5.6287260427
  O         8.6845742982       -8.2320243524        2.3905807464
  O         2.2567789629        5.7884307664        5.2848083010
  O        -9.7671303028       -6.9083312582       -4.0291673184
  O        -6.5160129165       -7.6737043444       -0.7833308439
  O         9.7717304829        5.7251305101       -3.3011598437
  O        -9.7721104762        0.4799789710        7.0916153632
  O         2.5312811094       -7.1682055461       -3.8948367403
  O        -9.6726754135       -4.3550705491       -4.4598478388
  O         9.2972786029       -0.8954301967        4.8245477735
  O        -5.4791658133        6.1971151845       -7.7545952075
  O        -2.9658098897        6.8310504307        9.4158793683
  O        10.1943275981        6.2059560366       -0.4592862243
  O         1.3219345460       -9.7214387271        8.2172383641
  O        -8.2309280185       -8.8359774465       -2.6267532575
  O        -8.2736664741        3.7145205795        5.4865638049
  O        -1.2252032352        8.0568723628       -3.3270324591
  O        -4.7963751941       -8.5716699827       -5.5026328411
  O        -4.4385696889        5.9907911907       -5.2139634341
  O         8.3343249141        7.2009543652       -2.0218938167
  O         2.7593459761        6.1470953887        7.9023171967
 Si         2.9921028986       -8.4638286879        5.0009099426
 Si        -6.7084933436       -5.9941084031        9.8995632571
 Si        -4.2268494067        5.7924128479       -6.8555972929
 Si         6.2469417431        0.1948698070        9.7629785179
 Si        -9.5212869162       -5.5849714308       -0.0822876887
 Si        -9.4468617980       -7.2150584629        6.0522540904
 Si         9.1208714044        6.3025797439        4.0352341084
 Si        -8.2330896198        6.5852982924       -5.7590282968
 Si         3.9593049558       -7.8987445516       10.3715714867
 Si        -3.1519143022        2.7937506421       -6.9577092165
 Si        -9.0611471099       -9.8133148304       -5.6219111325
 Si         5.9858110874        5.3368899486       -4.1528773004
 Si         3.4538456907        5.9635031306        6.4095088670
 Si        -7.3812973510       -0.6582581652       10.7517210291
 Si         8.0490204118       -6.3464348026       -7.5931436047
 Si         6.0939111419       -7.4682724895        8.0521470600
 Si        -7.5510017322        9.0234512967       -2.5340515998
 Si        -5.0565140626       -6.0677984123        5.9266406962
 Si         4.1322547154        3.9605267759       10.5006262164
 Si        -4.9108934524       -2.3391775961       11.2189552229
 Si        -7.1636695815        6.3907748571        7.5052352457
 Si         2.2429324719        8.6464734774       -5.3814789240
 Si        -5.7330363186        5.2122208671       -4.4735079845
 Si         5.0797321505       -3.5155785725       -7.8650014058
 Si         7.0187361118      -10.2063991353        8.0026621114
 Si        -7.2124209430       -6.3102154519        3.9932831191
 Si         4.9591318929        2.4372007392       -4.9471490862
 Si        -1.7808395745        7.5801092836       -7.2400910300
 Si        -8.2639311416       -3.5269071734       -4.6972568725
 Si         5.1272010839        3.8220797783        7.6659070229
 Si         4.1935843812       -7.0208520720       -3.7088126557
 Si         6.7295412099        1.4467868009        7.0693902142
 Si        -8.9885922370        3.3197406522       -2.8658410684
 Si         9.1318691351       -4.2796227402        6.9173703699
 Si        -6.7742361348       -6.3442652772       -1.6348719355
 Si        -2.3533100154       -3.6459760315       -7.4237775966
 Si        -6.6756377341        5.4691216737       -1.9884069240
 Si         9.2305905713        3.0705902945       10.6589839927
 Si        -8.2270437623       -8.5518775069        8.6270358738
 Si        -2.9781179938        8.4642086908        9.2628210120
 Si         0.4472962084       -4.0940946791       10.5017316546
 Si         8.5655897399       -2.2648021786        4.4225564548
 Si        -5.1967583397        1.1971870471        7.2317734918
 Si        -6.9850196814       -9.0299202509        0.0006970876
 Si         2.7686684108       -5.5137063957       -7.5847000165
 Si        -6.0861901830        8.7116953873        9.1963112154
 Si        -8.4883876700       -1.9533217809       -2.3460876577
 Si         5.3336087392        7.8003007040       -5.7876096590
 Si        -8.4037316184       -7.7256988399       -3.7198379463
 Si        -7.5208863440        7.6793020867        3.0504198509
 Si        -5.4305320398        7.4505007836        5.1579943445
 Si         0.2933182621        7.2225994193       -3.4390393907
 Si         6.2322938132       -8.2618579500       -2.0243181319
 Si         7.6076290646        5.3353277010        9.1167948771
 Si         8.9344930916       -5.6823336847       -4.7803803085
 Si         7.0976991805       -4.7478915511        9.3863787109
 Si        -2.2082956120        8.7878259962       -4.3882183653
 Si        -4.4642525759       -9.1050742120        5.4202910019
 Si        -0.7801738636       -9.3219614560       11.1128833389
 Si        -7.1908342181        2.4447732152       -8.2393268617
 Si         1.6326804849       -7.5523377223       -5.1805574228
 Si        -6.3094439891        7.5877419447       -7.3796654067
 Si         9.0697250182        5.0470810397       -4.5922642321
 Si        -7.5777912281        3.3955384210        6.9471264923
 Si        -0.8257024953       -6.8113705557        9.1211544837
 Si         8.8323106594        0.4440117421        5.6055784872
 Si         9.3404520575       -8.5020221443        0.8884602212
 Si        -5.1856860266        9.2950344983       -4.9283249453
 Si         0.1107655372        4.3063148441        9.3059903434
 Si        -2.8101562279        5.3580268312        8.6074061931
 Si         6.6148553836        2.7350858706       -7.6369342374
 Si         5.6385434720       -7.6603356138       -6.4011462504
 Si         2.7151894517        1.9321680557       -6.8334964553
 Si        -1.3196757668       -7.8767586316       -5.3664829780
 Si        -5.6141484164        2.1961285062       -5.4725858516
 Si         7.0282877641        6.5005286429       -1.4172634737
 Si         8.3351991009       -7.3642362917        3.6850044305
 Si         6.8478455535        7.9475471392       10.6889413148
 Si        -6.1882902621       -4.9209417106       -6.7104625913
 Si        -9.4484431947       -0.9420332795       -6.2176419102
 Si         0.7821016045       -8.5653367008        7.2025299706
 Si         8.2291821670       -3.3395246071       -1.4148652048
 Si        -4.5213641391        2.9678758386        9.8353850312
 Si         4.2911086554       -0.5459983904       -7.8133162639
 Si         0.6654954635        6.2615408260       -6.3250533372
 Si        -7.1605024273       -4.3075940355        7.5564710431
 Si        -2.5538961145        6.3329789164        5.7144959638
 Si         5.0917459655        8.5287219382        5.5244785261
 Si        -4.1990374096       -7.2480826413       -6.2473598670
 Si         7.2657273824       -9.6615258124       -4.5736847429
 Si         1.8065449781        9.2841608409        9.7727952703
 Si         6.8461717374        9.0598645570        0.1584233650
 Si         6.9483777603       -1.3757334166       -7.2354042696
 Si        -0.0046495217        3.2286965290       -7.1816647701
 Si        -9.4338424043       -4.6306685868        2.9119460709
 Si        -3.5436542908       -6.3094751094       10.4190114242
 Si        -7.9690207762        0.7084374375       -4.0926759309
 Si        -7.8625930167        6.0108265978        0.4813438420
 Si        -6.2090577851       -8.9955746837        2.8134422468
 Si         6.4578073693        7.4820861367        2.8549535556
 Si        -1.6732143875        9.1541843115        6.5729908226
 Si         8.1783870575        3.6072615193       -0.5020504799
 Si         5.5116910165       -6.8438489804        4.9736751389
 Si         9.1770559515       -9.2871232889       10.9075439507
 Si        -9.9952306199        1.8265238578        8.0830834643
 Si        -9.4184339584        3.2584580372        4.3611664440
 Si        -6.0107392032       -1.7884562131        8.4599830464
 Si         9.1298522845        7.1721412799        7.0271225429
 Si         6.4992144133       -5.4347036737       -2.8886060472
 Si        10.0050405033        6.8701573819       -2.1059706907
 Si        -8.9385505301        3.2017507335        1.3826566991
 Si         2.4894681600        6.3160418318        9.4515963278
 Se        -2.3626440632       -1.7684827904        3.6064810760
 Se        -1.8215599803       -4.1589172370       -5.0775696341
 Se        -5.0199883288       -4.8733107525       -1.5774946472
 Se        -1.9618207256       -5.9667753311        2.3450154835
 Se         1.4503492171       -5.8516404567       -0.3825479383
 Se         1.4304402863       -8.4117273543        3.1199857692
 Se        -6.2465046565       -1.8062847276        1.9932703497
 Se        -4.0341563082       -1.0492422447       -4.5494459340
 Se        -4.5978476499        0.8533769118       -0.1188070042
 Se        -1.8708824947       -0.8052268412        8.2548509315
 Se         3.9103814584       -1.5101748223       -0.9634387609
 Se        -2.2438916971       -2.7896156311       -0.7981164162
 Se         1.2315873803       -2.5281738194        1.5827538952
 Se         0.7199823861       -4.2070568533        5.6262416659
 Se         5.2437635237       -5.7863682849        0.9061864375
 Se         5.6554801861       -4.6131846659        5.0816547464
 Se        -1.9607665561        3.9594658399       -2.0159128656
 Se        -3.9719617996        4.0111136710        2.4131717889
 Se        -0.3562053649        1.7707788919        4.9242439395
 Se         0.3218999976       -0.0389112886       -2.7634725335
 Se        -0.8387160067        1.2488757398        0.6871488685
 Se         0.6346654341        4.7445231530        2.3620159071
 Se         1.3125990029        3.1177756644        7.8625946778
 Se         5.2347429997        0.5913659583       -3.7601706056
 Se         3.4634866460        1.2171143972        2.5336435167
 Se         1.8802161454       -0.3252926369        5.9467750507
 Se         3.9123457143       -1.4624752076        6.4718429308
 Se         7.7665015831       -2.3659919817        0.5245883357
 Se        -2.1843287736        7.8668769366        1.0251009138
 Se         2.7761454002        7.8657948298        0.8122067744
 Se         2.7923258755        3.5186026475       -1.5956575369
 Se         5.3609516211        5.6084526503        2.5561603611
 Se         6.4581528086        2.1993579256       -1.0841558262
 Cd        -6.6412879720       -3.3058538832       -0.1022470494
 Cd        -4.0815254188       -3.4252328552       -3.6732697087
 Cd        -2.9376227638       -4.3013317217        4.2196901120
 Cd        -2.5798473998       -0.3484488515        5.7039373253
 Cd         3.3828593957       -4.0866283477       -0.5858400862
 Cd        -0.6361810705       -4.5886164679        0.4374983258
 Cd        -7.2837633940        0.2041596072        0.5953766700
 Cd         0.9482519911        1.9136344633        2.3509345228
 Cd        -3.6572166130       -1.5419318771        1.1997789283
 Cd        -0.6056192720        1.3286933779        7.9215140854
 Cd        -1.3055430764       -1.6195766866       -4.0583372559
 Cd         5.1591159294       -0.9734556626        4.0379831536
 Cd         0.1071833250       -6.2767785068        3.9940695390
 Cd         3.2184702791       -3.9434254449        5.5244376826
 Cd         3.5222844446       -1.2964168895        1.7446235731
 Cd         2.9658677502       -6.7455112331        1.6447130614
 Cd        -1.6541716068        6.2921859414       -1.0096024490
 Cd        -3.0463231036        3.0646495523        0.2463496920
 Cd        -2.6715212808        2.7625782411        4.1892212575
 Cd        -4.4984768342       -0.2327986102       -2.2545745837
 Cd         0.2892090836        3.0087953764       -1.0251367178
 Cd         0.1002969033       -1.1749823591       -0.4233401561
 Cd         0.4462664703       -1.9430510366        7.7175526272
 Cd         2.8015088859       -0.2288004239       -3.3540122112
 Cd         6.4373947484       -0.2574350430       -0.3483633906
 Cd         0.4941313832        4.4717802877        5.3439606800
 Cd         5.5547469521       -3.5833825832        2.4263122105
 Cd         0.5440337487       -1.9295953089        4.0186835797
 Cd         2.3986385262        5.9151136023       -0.8100913680
 Cd         0.4039446200        8.4095211258        0.9836881686
 Cd         2.8177639202        6.0708056301        2.9366876958
 Cd        -1.9266462978        5.6954947312        2.7019526504
 Cd         4.0930937782        2.4295998401        0.2773940072
