438
 i =     8600, time =    17200.000, E =    -10932.3051316216
  O         4.1075630623       16.2661048279        3.4492421676
  O         3.6305950584        8.7819415347       10.4126602694
  O        14.2931513720        1.2031898203        1.9055540874
  O        12.1120368713       15.9598295892       17.2330279186
  O         1.9623338590        7.5272814911        1.4981171915
  O        15.6302468478       16.1367993995       11.9930101309
  O         3.6166301570       11.3958500449       18.9287666127
  O        17.6295079492       15.3725514256       19.8366487646
  O        15.4375633597       13.8626870143       20.7717840509
  O         1.5984173757       15.8060135846        2.7386543144
  O        11.1251927482        7.2909250521        0.4351509251
  O        18.0635446826       13.4423267287        2.1682531619
  O        10.6196654580        6.5977411946       16.7925682229
  O         1.4622248001       14.8338451318       18.8415758539
  O        17.8666294086        3.1147517751       18.2906287231
  O        11.8901921961        2.1711980980        8.3706003658
  O        13.2279190220        1.2847384337       18.6646571545
  O        16.9685919445        6.3329420029        1.4993948939
  O        10.5517419808        1.0096969261       16.1453925430
  O        15.3443352684       19.7287689781        5.8348466590
  O         4.6651106730        8.1711259766       20.1747078226
  O         3.3062517348       18.7041192093       12.6677314026
  O         1.2522542514        7.9836560427        9.1957665051
  O        16.2652063154       16.7421788465        7.4139350336
  O        16.9819289100        3.7870488638        1.3305799226
  O         7.4201804454        5.9670480732       16.7870095280
  O        15.6627698071        1.9606883490       19.1978386554
  O        -0.3990213402       18.4072149875        1.9677828249
  O        -0.1396207913        4.1585539793       13.7243915231
  O         2.3363807642       17.6999046189       17.4702556515
  O        11.7776505091        3.9628863389        3.1162692643
  O         0.7454074154        2.6044589965        7.5667023588
  O         4.7108704333        2.9244404438       14.4772625743
  O        17.0057843797        4.7315774272       10.8282456890
  O         5.5749694474        5.3722745531        4.0588275507
  O        11.3387973212        4.3981461660        5.7742691000
  O         4.0903473187       18.8917823337        9.2147585668
  O        14.4206111797       15.4794162592       15.9276677746
  O        16.9332265410       10.8438750942       19.1552383295
  O        14.5697394527        5.1018842642       20.2952899685
  O        18.7781925941        3.7096316085        5.4478244228
  O         3.4450905196        8.0163563240        7.5801369042
  O         4.4119170368       17.4374499661       19.2536453138
  O        13.0544479601        7.8711058510       16.3354381176
  O         1.9730363525        3.0956692932       14.9392248974
  O        15.8038754222        4.9382779431        3.3637627433
  O        14.4653522350       11.6230067843        2.1047681879
  O         9.7100928079       18.9409044401       20.2357099204
  O         5.7666916668       19.8280384752        2.5323376877
  O        16.9612007544       18.5257158073       12.6044867935
  O         4.8681065856       12.2616744319       15.2481731492
  O         0.6503010047       15.9286946268       16.3325662410
  O        11.1605595394       18.4118301751        3.0229397983
  O        17.7973697259       10.9003316578        2.4091816095
  O         9.7525475722       16.4629437206        1.9113281642
  O         0.2179073367        1.4687603910       13.5431663987
  O         7.2172688783        3.1304468757        4.1825675182
  O         0.4111315341       18.6008678577       10.2095803169
  O        18.0949477076       20.7218397690        0.7412061619
  O         3.2448033209        4.5460330062        1.6376303979
  O        17.6698486778       13.5174518958       14.8226782712
  O        -0.1650287371       13.6739825999       17.1895454579
  O        14.7158394673       12.2624024985       18.7813535088
  O         0.7347153890        7.5363453899       11.7557712993
  O         8.0203321139        2.5770042819       19.8232861725
  O         0.1445335162       10.8413598110       19.8548201916
  O         3.7513045396        2.2151250263        8.9865500806
  O        10.0512555808        3.4575042643       15.2551594690
  O         0.6961102099        7.5603746848       18.4214350640
  O        12.8650220173       13.3210385904       20.1764943226
  O         6.5529314315       18.8374409868       15.0940741732
  O         3.4414264777       12.1731963073        2.0197832195
  O        14.3756280602       16.4827337331       18.3462195589
  O         2.2034930401        2.8248839079       19.3478933905
  O        19.5760697531        9.7416500995       13.8447882523
  O         7.1475405596       15.4158108256        2.1323980537
  O         0.3380281497        7.7979320813        3.7570691648
  O        17.4562944932       17.0938595132       10.2833943671
  O         8.5399155523        2.5212964228       17.1754909861
  O        13.7316891581        5.9849925084        7.6387602138
  O         2.4772765442       10.3989947380        8.6577153689
  O         2.7246054088        9.1581821156        3.4433074974
  O         8.4747612512       18.3321231750       13.4729525796
  O         3.3306779113        0.6245632359        6.8444400976
  O        12.2221709555        6.0643015677       14.6865253021
  O        12.3174616475        9.7700495526       19.1754728569
  O        15.4233826058        7.9550958959       19.2958117820
  O        10.1386920479        9.6242667941        1.4047947577
  O         6.6783334085        0.9112929044       12.7315712744
  O         8.5384680234       20.5529705185        6.3732360919
  O         2.8609238116       11.3137239710        6.1195281446
  O         2.9623298498        4.7244283136       13.2178826683
  O         5.6382663546        6.0778291604       18.7948146265
  O         2.0433772124       17.3177251527        4.7718244694
  O        17.6004727031       20.1653330471       16.9597342886
  O         2.4637804570       14.0977648456       16.3844607592
  O        -0.5810898288       18.4931267768       18.6772513321
  O         1.6721929893        4.8728684875        6.4832708254
  O         3.7919277098       20.3715897235        4.2532393227
  O        15.5863187318       17.8149050760        3.8847180518
  O         9.2456752850        4.4531369235        2.0609802188
  O        12.5038624896       17.8127943023       19.7612753966
  O        14.6347684529       16.8067078836        1.6883479018
  O        16.8028243452       12.7459457750       17.2346786731
  O        13.7206679917        6.3753555691        4.3686733891
  O        17.1399465671        9.8066965244       10.2942518052
  O         4.7102741858        8.3378445973       17.4756332813
  O         1.0090339979        5.2568836345       19.6341566527
  O         0.4226234528       12.1473119710        3.6395078347
  O        18.6415029959        6.6490992030        9.6300704515
  O        15.0709407157       18.7890434972       19.3776726225
  O         1.7718934983       10.4709726290       15.9240184350
  O        -0.4777518015        2.9029952242       15.8781075688
  O        14.0115722920       19.0618669440        9.2989374297
  O         5.8568065131       11.3544745914        1.1836564776
  O         8.5738866806       18.5287853149        3.2759534693
  O        15.0113009334        3.5915214577        7.9577342772
  O         3.1279559692        6.6255633754       18.6995005852
  O         0.6105084212        9.7887633509        6.8421135132
  O        12.0167144628        1.9273575794        4.9436315061
  O        18.5528977272       17.8764643764        7.9510870745
  O         9.5009384205       17.9355476102       17.7814391236
  O        17.0619564832       20.0874510467        3.9448107735
  O        18.3776602725        4.2573692083        8.5798824130
  O        18.8822887296       13.2176894091       10.9726913750
  O         3.7686878516        4.7948032447       15.9309053418
  O         4.6855519032       17.0407513355       14.3769843549
  O        15.6119066887       10.4542707710       16.9202771100
  O        16.5204485718       15.5599008004        2.9923379490
  O        16.0542213743        1.3010243527       14.1355347617
  O        15.5397098202        4.0779900926       14.0172241344
  O         5.8771896154        0.8608251102        7.8828122771
  O         2.0343459767       17.6306737693       14.7064950017
  O         7.7230489723       17.3557086757       19.7987110200
  O         7.7823301834        7.7319825817       18.8265471388
  O        13.5487346488       18.0836015698       16.1906277058
  O         1.8018923045        2.4339655763        5.3432584744
  O        16.3250823055        3.0053163973       16.2682141739
  O        13.8268276507        3.8395862597        4.6103242020
  O        -1.1524136660       16.2156928010       12.7595375090
  O        17.8059050485        8.7009139348       20.2868415326
  O         0.5101561725       16.0130265214        9.3195998593
  O         5.9619434158        2.3551414923       18.0537786153
  O         6.3891384583       16.3197836854       16.3734714646
  O        17.2749363059       17.5176153497       16.5970403945
  O         4.3316816408        2.9833126039        6.1285239338
  O        16.1294603006        1.4549630758       11.5184787602
  O         2.7984175738        6.5662419921        3.9267821437
  O        17.7801907626       21.0080914610        8.6196795694
  O         0.2424663894       18.6093086752       16.1649786171
  O        15.5661268648        8.4278081603        2.4991078768
  O         1.6108391992        5.4185691387       10.2998438379
  O         1.2598555910       19.8903290324       20.0810267061
  O         0.6920498459       12.3234850344        7.5384930962
  O         6.5315099861        4.2904952463        1.8412487474
  O         2.9325645316       16.1071430536       12.6443804816
  O         3.3957511992       20.4870399286        1.7476168648
  O        11.2042501326        3.5137860474        0.6378518111
  O         3.3375418119       19.8919739483       18.4989358463
  O        16.2851945163        5.9041474126        8.4849036460
  O         2.4392942989       14.5811446170        4.9885520026
  O        12.4855385937        8.6782398316        2.3046054726
  O        13.0458393266        5.3417188359       17.1873203655
  O         8.6851994665       14.7993219421       19.3432658412
  O         5.8531402746        9.0031580804        4.4343461983
  O         7.7041391441       19.7673719365       18.6137041657
  O         8.0954925487        5.1506469410       -0.1838018846
  O        14.3689142744       19.0425389644       12.6962205992
  O         0.8773154238        3.5133231756        2.3140720795
  O        18.5242165864       15.8096412688        6.1973009795
  O         8.3274253284        1.3638716248       14.7785643231
  O         9.0378246557       10.2753162091        5.5951557741
  O        17.1933555525       12.4723506602        4.4202215457
  O        18.0994016416        6.3216045500       17.0159507883
  O        18.9503872405        8.6972146877       16.2186496569
  O        13.9460684696        2.2915103910       15.4264680164
  O         4.6471249435       18.5675963840       16.7140497909
  O         0.3217986597        2.5617618565       10.3171701660
  O        14.0069722084       15.5220850620        4.0240264220
  O        17.6902902971       18.1336087117        5.5712830541
  O        15.6289784948        5.2996146564        5.9345332591
  O        10.0806457915        2.1170357080       22.1085058160
  O         4.8135739802        3.0373064713        3.1205979321
  O         1.2677870804        6.4709972559       16.1631983642
  O        18.6763681364       11.3327597239       15.8745710264
  O         4.9585855751       13.7241919309        0.1846232963
 Na        13.3748022405       14.8101859161        6.3483667536
 Na        -0.5333442319       18.6682955434       13.8040349683
 Na        13.8496016296        3.2412296164       17.7014137440
 Na        14.2644177959       17.6778731031        7.0517704076
 Na         4.1038840341       13.2058274356       17.5340032126
 Na        13.3838177689       19.4578676323        3.8567639227
 Na         4.8402212995        3.8689354331       19.3598441986
 Na         2.3429472575       18.5938519705        2.9042654956
 Na         6.0652136468       15.8807025864       18.7637268999
 Na        18.9241117886       21.5117608394        3.4156656087
 Na        19.2502205474       17.0179349136        4.1651093782
 Na         3.1438203298       15.6843295179       20.0569293383
 Na        14.4286678788        5.6393249539       15.3003841745
 Na         2.0936593210       20.2552999041       10.5072889349
 Na        11.7889127915       18.6105388737       17.7046994995
 Na         7.4208520287       16.3234764561       13.1602875872
 Na        13.2541560836        3.2387028886       20.6592702734
 Na         5.3459254981       -0.4150002328       11.3040668491
 Na        19.9138825712       13.6578195493        5.3294655440
 Na        11.7710625556       19.8269576055        1.3957846246
 Na        17.0000343998       14.1955938386       12.4518001440
 Na         2.1587591317       10.3119566371        1.1868455158
 Na         4.6375914506       10.9395116938       10.0764320484
 Na        12.2258059016        3.6363015419       14.6844817067
 Na        12.1094727759        4.4740840875        7.8671658374
 Na        13.8835303627        8.4883711400        4.0103827504
 Na         0.7963773700        6.2842824082       13.8888204430
 Na         2.4784377800       12.2485012531       14.7398582220
 Na         4.0941347738       17.9366859999        5.4643879176
 Na        18.3231296938        5.3447099363       19.0520644685
 Na        11.3752158211       15.8364975990        0.4071121099
 Na         1.5896777748       16.4642946925        7.0656298203
 Na         7.9398782503       20.6997112628        2.7439191493
 Na        15.4280016728        2.2214568697        3.5197392789
 Na        18.7829675309       11.9689251225       13.0563699233
 Na         8.5619815542       15.8230366704       17.2515813428
 Na        16.6033935016       18.7440100931       21.5146023194
 Na        12.7934676046       19.7431583392       14.8051393998
 Na         2.6761887852       17.2713114258       10.2291528154
 Na        14.5885644879       17.0878806862       14.1451116386
 Na        13.9159091843       14.3095770276       11.8000655339
 Na        18.1250685060        8.4144903509       11.8968741584
 Na         4.7517729746        9.6783593323        2.4167071621
 Na        15.0106821379        5.0962850612       11.9987235896
 Na        10.5656781295        9.7578084714        3.6976824774
 Na         6.8170024119        8.6629844549       15.9711314241
 Na         5.7043625484       19.4253942929        0.2928397129
 Na         7.2172846535       13.0494227058        0.2744378741
 Na        15.8136547376        8.0837419771        8.8891418254
 Na        11.2688990314       16.1857227663        3.8830162818
 Na        16.4843285534       19.0967455562        8.6761228389
 Na         4.9221854536       14.2778698828        2.6034030969
 Na        16.7963795093        2.3358559881        6.4382515619
 Na         9.4233464618       18.4381379531       15.6182843916
 Na         6.2468737370       17.5164619513        3.0022745676
 Na         4.2718015672        6.4824089087        2.2288896158
 Na        18.0926657233        5.8123993907        6.2621544976
 Na        18.0935403790       11.3514174516        6.5095318257
 Na        17.6469193749        8.5352207090        3.5146501933
 Na         2.3043609917        4.0576484775        8.5487278290
 Na        13.2409447428       14.0111028091       18.0832352754
 Na         9.6820876135        8.3660984255       17.7189234900
 Na         2.7360408158        4.3048061337        3.9450891229
 Na         1.6580479627        7.1673556203        6.3316040309
 Na        18.9202354018       14.0864846186        8.5381144244
 Na         1.5845799190       13.3298061620        1.9730392631
 Na         7.5495528430       10.5177291649        3.1680856604
 Na        20.0750473147        9.9243582427        4.6302841526
 Na         0.6895897837       15.1921095786       11.8781502482
 Na        11.8349648066       19.1816993966        8.6873709059
 Na        16.4579770851        8.3452390325       17.4936184488
 Na         1.2153155952        3.9284119627       11.7052057889
 Na        16.2570730518       14.3738926126        5.4015512742
 Na         9.1043156813        4.0748564310        4.6987434398
 Na        -0.6202773781       13.4000615550       19.4414258252
 Na         5.9336035572        2.9409382650       12.2603923001
 Na        10.0421693072        9.7667703697       10.0093508481
 Na        10.4572666328       20.0906930966        4.2825664205
 Na        20.2543222263       19.5392417011        7.4529235280
 Na        15.8177384474       15.6977283051        9.2738351774
 Na        16.1376109316        2.6945652626        9.5561955492
 Na         4.2563446135        5.2363861584        5.8884934431
 Na        16.5099172691       15.9510738719       17.9633495277
 Na        10.8293092743       11.7363090300       19.8621914314
 Na         5.2622351281        1.3901389226       16.1361595904
 Na        12.0818676391        6.5035257571        5.9988431762
 Na         9.0484921293        2.7932471117       13.0676648141
 Na        11.1250243230       21.5294224163       18.0599791917
 Na         6.5827884608       14.1036508030        7.7996099490
 Na        10.5732047594        5.3357534499       18.6979454746
 Na        11.9428434236        6.4159792363        2.4878917231
 Na         5.7035383325       17.2220607364        8.5498446697
 Na         4.6044989314       14.7501427990       15.1461326786
 Na         1.3460692540       11.1867860782       18.0021909657
 Na        12.8446630723       13.3398639114        3.1491230990
 Na        13.6924799006        1.6284622492        6.9591667075
 Na        10.4196306025        2.2185783468        6.9385348952
 Na        -0.9988054705       20.0499000526       11.1239474545
 Na        17.4458846999        3.3923614472       12.4510986584
 Na        17.5393901335        5.3766089998       14.9741769174
 Na        10.0238824513       11.1695686869       14.5861067905
 Na        -1.2635633923       15.8693622525       14.9407746305
 Na         2.4283788706        0.8231158077       14.0411995641
 Na        12.1531223125       12.9150856827        8.6927632422
 Na        19.3017150703        5.2085231114        3.4727808249
 Na        15.1317201019       13.4763219654       15.6728383306
 Na         0.2326614494       16.3080197522       20.5887947753
 Na        15.6325835104       10.8812434656        3.8851504944
 Na         3.7579267227        9.1098562215        5.5600831555
 Na         2.7648452826       11.7643949524        3.8732071058
 Na         1.7992943664        4.0556459200       17.3791222121
 Na        18.6323966237        9.1653252195        8.4278338379
 Na        16.2713135369       10.0885014801       14.7283533253
 Na         5.9273670368        4.1991225536       16.3387169883
 Na        13.5439891213        6.7351531260       18.9577314087
 Na         6.4520599462        9.6946647578       -0.3507349945
 Na         1.5150311357       12.3898081292        9.8282839102
 Na         8.8772114868        7.6005014398        1.3876968929
 Na         1.9272608112        9.4124995404       12.1733484902
 Na         5.4689668957        3.4367674048        8.5351466732
 Na        15.4237828927       19.4491873289       16.5499537695
 Na        13.8935782628       20.8669236229       10.7391108287
 Na         7.2012203150        7.9377138314       11.9299417798
 Na         3.8352394274       10.2973924996       16.8918903356
 Si         0.8248434659        3.5369111933        6.1710593836
 Si         7.9827744610        4.1538519350        1.0607306187
 Si         4.4935962517       12.1689331772        0.6762972676
 Si        17.7061756150       16.9728923706        6.7585075592
 Si        17.0891106155        2.5765771220       19.6002429000
 Si         1.9004011834        7.7454928540        3.2814949244
 Si        18.2657035574       12.2411279617        3.2947202025
 Si         3.3160229851        1.8174345046        5.6311392870
 Si         6.0597769483        4.0144028014        3.4932197288
 Si         9.4321384443        2.0385423487       15.8108976440
 Si        17.7289696752        2.4223405282       16.7712904231
 Si         9.7942291801       18.1188538703        2.3305242746
 Si        16.4408830544       19.0089724425        4.9194331376
 Si        14.2909724567       12.6746549817       20.3068479768
 Si        18.9998409638       17.3144270238        9.5196769654
 Si        10.5853011467        3.4590068223        2.0951513049
 Si         8.7172279584       18.4574523331       19.0187157776
 Si        12.1601943607        6.4360064390       16.3219764585
 Si        17.5726464496        5.3532456194        9.5070829615
 Si        11.4420904846        8.8161702618        1.0536973772
 Si        14.7095720180        5.2379781333        4.5845123719
 Si         3.2533339488       17.3427147138       13.5480221818
 Si        18.1159986515       12.8422353561       16.2175490171
 Si         2.6283410053       20.6553373432       19.6829137371
 Si        14.0373460234       17.5062646762       19.6826941181
 Si        14.4972090256       20.2949579712       19.7470853769
 Si        13.5776254756       16.5797946379       16.8277133656
 Si        18.2594053579       18.6215116022       17.1441294978
 Si         4.5613500343       20.8413836697        2.9026378513
 Si         0.8095500231        6.8194892959       10.3472095609
 Si         8.3231089837       15.9323818298        1.1593791980
 Si         3.7489410551       18.2740382909       18.0555457857
 Si        18.1074332306       10.3221066194       20.2379388888
 Si         7.5078432442        2.0000622150       18.3812936300
 Si        19.4378468109        7.1986204205       16.9643126699
 Si        16.8288179399       14.5849139324        1.6448172123
 Si         2.7969786327        8.7307981216        9.0139383422
 Si        16.0147221386       11.4739320867       18.0511830161
 Si        19.0192184984        2.6806356453        8.8588191001
 Si         0.3020581339       10.0422715699       15.4115232283
 Si        15.8143836091       19.7891820762       12.6685721777
 Si        15.0836779155        5.1370293615        7.5998644346
 Si         3.4133315409        3.9518273951       14.6220952493
 Si        15.3571744341        2.6896706234       14.8315120672
 Si        -0.2941596488       19.3404576652       20.0631381682
 Si         1.2243949471       14.6572906361       17.2255896568
 Si         1.7186695268        6.7811396358       19.4535575661
 Si         7.2410009181        6.3053936245       18.3099688267
 Si         4.1916592344        0.8179323124        8.2784423988
 Si        15.9089111293        5.1235845143        1.7234807774
 Si        12.1292102092        3.5101305053        4.6826678696
 Si         2.6558512375       15.9157056318        3.9855871447
 Si         0.4052834358        2.8078896797       14.4064270072
 Si         4.6004200186        7.4255499813       18.7601861993
 Si        17.0331093136       16.9237582473       11.9358536510
 Si         5.7008764296       17.6060980661       15.6230664346
 Si         1.6840087910       10.9828965081        7.2049933313
 Si        15.0499057958       16.3912510928        3.1917812971
 Si         7.4671153879       19.5727906567       13.8637920947
 Si         1.8516376321        4.0264886725        1.1479500563
 Si         1.4131667550       17.4090603455       16.2028286450
 Si        16.3382912574        7.9180878625        1.1740642478
 Se         4.3655871110        8.1872959282       13.6671232965
 Se         6.9671093346        5.2492689065        6.8650863397
 Se         5.7046369947        5.7751013548       10.2355459147
 Se         8.3656981501        5.5298805520       12.8185859822
 Se         8.0961517278        2.7146722913       10.0737086422
 Se        11.3118197084        1.4703905392       12.4214302135
 Se         3.0191582290       12.2707836190       12.1667148459
 Se         5.7770593634       12.7402445805        5.0573336977
 Se         6.7935782158        9.7896726548        8.5021324729
 Se         7.4259717843       10.9680651506       12.4953595517
 Se         9.5272469101        7.0526580243        4.1822725309
 Se        10.1972158498        7.2489947673        8.7330047094
 Se        11.0447564943        9.0135064598       12.8215891233
 Se         8.4197697383       10.9654339639       17.1138219013
 Se        12.4869915831        4.8646842822       11.1572343917
 Se        15.5305068376        7.7699046232       13.1312836738
 Se         6.6674531918       16.5391171077        5.8394832600
 Se         3.6079700951       14.8633665176        8.7859234724
 Se         6.6488986702       14.8958324777       10.9840400022
 Se         9.5088928730       13.1842193798        3.4394679054
 Se         9.2542316659       13.5934548645        8.3148418356
 Se        10.9451905271       12.5523152910       11.3106899631
 Se         8.8798685217       14.4290609020       14.4432255005
 Se        16.2043767732        8.9335183556        6.1276874155
 Se        12.6554070973       11.9533909814        5.7172348957
 Se        15.2164167901       11.9850100147       12.7383444693
 Se        12.1978792861       12.1728598750       15.7362186748
 Se        13.3142905814        9.5996962575        9.4790899375
 Se         8.8775616419       17.8789680183        9.7496250320
 Se        11.7273411115       16.9130757944       13.1646197334
 Se        11.2719126119       17.6074408004        6.1851837803
 Se        12.7490498251       15.6260140502        9.3046486389
 Se        15.7653537906       12.9401070006        8.1715843070
 Cd         5.6524249512        7.3597475289        8.1713623830
 Cd         8.4450161034        5.1898383661        9.0753219629
 Cd         3.4987219640        6.2814139332       11.8054559116
 Cd         3.4356458607        7.0843351246       15.8763811499
 Cd        10.9004803828        2.7589043024       10.1414239958
 Cd         8.0999999160        0.7327830811        8.4682695485
 Cd         3.6528676173       13.4513896686        6.5448127562
 Cd         6.8493214320       10.3303722295        5.9356698982
 Cd         4.9326662138       10.8589254760       13.5524055294
 Cd         7.1076385951       12.0573282026       15.2662597087
 Cd         6.9038801578        7.0903183636        4.6832747650
 Cd         9.3515916881        8.4679143976        6.5688487660
 Cd        10.8653176511        6.1951538148       12.7683205257
 Cd         9.1111603958        5.6737667970       15.4036678466
 Cd        12.8249186008        6.9368552566        9.5950998498
 Cd        13.1728515718        8.1678502445       14.0322776163
 Cd         7.6752267221       14.7585549961        4.2073499827
 Cd         4.2031211556       14.3539981252       11.4804570886
 Cd        10.5158967227       14.8699821406       12.1550623981
 Cd         6.5450723604       21.3833658619        5.9813762727
 Cd         9.8577340213       12.3014589548        5.8958969570
 Cd         8.1862310497       12.7738562876       10.8471037499
 Cd        11.2160323908       14.9771559361       15.4039699308
 Cd        14.2060340183        9.6706384199        0.9795671275
 Cd        14.5988457537       10.8568324273        7.2730979691
 Cd        12.6504659235       11.5254653028       13.1397413000
 Cd        12.9571130207        9.9876107872       17.0163834271
 Cd        15.1895025137        9.6702678173       11.2209843929
 Cd         8.5649080291       18.3654357714        5.7525156589
 Cd         9.9920987071       18.7161414229       12.0278767117
 Cd        13.7660519441       17.7870645855       10.9406037103
 Cd        10.4036637201       16.1040371034        8.2091883810
 Cd        17.3577295197       12.0198510850       10.0936361510
