438
 i =     9800, time =    19600.000, E =    -10932.3806609128
  O         4.0956812548       16.4285904066        3.2054086080
  O         3.7078578952        8.8493598966       10.1295076033
  O        14.1498361399        1.1723555491        1.8717521481
  O        11.9044287782       15.6082369570       17.0525513733
  O         1.7239442387        7.4699113510        1.4622889710
  O        15.6234522527       16.4421725150       11.7019389275
  O         3.9140164829       11.3638085425       18.8262968177
  O        17.2510094433       15.5383824859       19.8319191868
  O        15.2392495817       14.0229758238       20.9064754159
  O         1.5518755830       15.6738890389        2.6151292465
  O        11.2553249567        7.3402190632        0.6389056679
  O        17.8326839417       13.7770261758        2.2569169104
  O        10.4808466153        6.9739903765       16.7582892155
  O         1.2263478425       14.6486765509       18.8322047577
  O        18.0035566128        3.0261450029       18.1784693364
  O        12.1108774938        2.2396625063        8.6347322372
  O        13.4734981407        1.7297578544       18.7066428935
  O        16.9635947232        6.4992931995        1.3267727066
  O        10.6856636768        0.8208138377       15.8482962186
  O        15.6025617182       19.6501813642        6.1471824373
  O         4.6398545375        8.1700865319       20.0722769410
  O         3.4257305554       18.7001700543       12.4726877809
  O         1.3095909050        8.0332982212        8.9245422169
  O        16.4122752699       16.6403381555        7.5319469356
  O        17.1770260249        3.8883202310        1.2302929260
  O         7.3838197193        6.1703393301       16.8243447453
  O        15.8975163025        1.7254297158       19.2725417627
  O        -0.6870741200       18.2818671232        1.5329669276
  O        -0.1197283776        4.1646508443       13.5015552776
  O         2.0951319448       17.8702698352       17.4926535251
  O        11.8169156651        4.0225039619        3.1597065954
  O         0.7015095910        2.5858300270        7.5491527993
  O         4.5862228523        3.0605685099       14.0938136630
  O        16.8721861343        4.8859304463       10.6603497982
  O         5.6433389166        5.4128351543        4.0528752045
  O        11.5481394306        4.2856241554        5.8155679208
  O         4.3487017540       18.7946306203        9.1843851650
  O        14.5499836093       15.5619864839       16.1568177809
  O        16.9834904968       11.0584289320       19.1936337047
  O        14.8387147979        4.8370773672       19.9133068234
  O        18.9094977888        3.8666743676        5.4037459107
  O         3.5204506611        8.1352743440        7.5029587806
  O         4.0203012561       17.4157785788       19.0459648820
  O        12.9639577814        8.0260425004       16.5581159372
  O         2.0497704459        3.2910743306       14.9603834404
  O        15.7904455524        4.9372934370        3.1467487433
  O        14.4136713304       11.6333107685        1.9838683291
  O         9.1598882782       19.1405675416       20.3212222455
  O         5.7345880332       19.9377501554        2.6136327372
  O        16.9630792007       18.8529159755       12.4420456578
  O         5.0613897090       12.2794198581       15.2579412453
  O         0.5683624339       16.0289366513       16.4587810359
  O        10.9191883953       18.5387850677        2.9608359244
  O        17.5720250928       11.0526285460        2.4204306074
  O         9.3971163555       16.6520850036        1.9168250488
  O         0.6627921626        1.6345618117       13.5202766977
  O         7.4005715893        3.1528572889        3.9338439025
  O         0.8107898081       18.6568914873        9.9450982668
  O        18.2457275912       20.8055174038        0.9357917528
  O         3.2436867527        4.6501922370        1.2826050852
  O        17.3998856913       13.7084905344       14.8966915794
  O        -0.0453609561       13.5001851455       16.9895018739
  O        14.7814094416       12.4198076602       18.8077749662
  O         0.8355070816        7.5729882620       11.5712462573
  O         8.0155608093        2.7131630338       19.7637813946
  O         0.1783568957       11.2025052569       19.9341289929
  O         3.6756174119        2.0416264913        9.2847725791
  O        10.1014777850        3.3690939040       15.3830774873
  O         0.5521234139        7.6182929418       18.3622425339
  O        12.7268712229       13.4154102265       20.2987353851
  O         6.2229715182       19.1128444920       14.9689688282
  O         3.3782567093       12.2833021602        1.9542336597
  O        13.8324929772       16.4031098143       18.6073414583
  O         2.1679556204        2.8284556893       19.1859769050
  O        19.6180647435       10.0970745822       13.6905649152
  O         7.0776326049       15.4577315484        2.2398589518
  O         0.2738195091        7.7069152903        3.8714061713
  O        17.6744327577       17.5846934061       10.4034944423
  O         8.8533547565        2.1438164874       17.3749114821
  O        13.8474888479        6.1326997193        7.5928745946
  O         2.4191671212       10.4360392693        8.5282857662
  O         2.5091053949        9.1652191209        3.3693974272
  O         8.3098571504       18.6474517905       13.5659120438
  O         3.3403150215        0.7998281303        6.8988144634
  O        12.0446405447        6.2977612051       14.5843149605
  O        12.2528994667        9.7926201392       19.2991461843
  O        15.4449398479        8.2387800274       19.3396742511
  O        10.0897388693        9.7419098560        1.4171355623
  O         6.5635669778        1.1395593719       12.8409796958
  O         8.5721389317       20.6218859573        6.4418080027
  O         2.7112414484       11.7906641557        6.1991992376
  O         2.8273314952        5.0688597023       13.2757717232
  O         5.5829811402        5.9883970756       18.7321513153
  O         1.8922188730       17.2213737275        4.8469995173
  O        17.4424834591       20.2957395388       16.4736815984
  O         2.4898878598       14.1455535622       16.3357484031
  O        -0.5094771963       19.1852946023       18.3409303727
  O         1.6800475496        4.9702690273        6.5572874327
  O         3.6778449051       20.5055648436        4.3146711665
  O        15.2924424852       18.0775006925        4.1673102746
  O         9.2607555800        4.4917569828        1.9984784457
  O        12.1597293352       18.0327171844       19.8309467711
  O        14.1394292534       16.9517301673        1.9712322645
  O        16.7891961970       12.8822243323       17.3973020498
  O        13.6431602982        6.4039199296        4.3170529614
  O        17.2144985373        9.7471014184       10.2328127443
  O         4.7198772831        8.2736559839       17.3260293560
  O         1.0386566371        5.2308642999       19.2197419058
  O         0.1930320533       12.3296522323        3.6358550966
  O        18.5173574431        6.8051561772        9.4433106427
  O        14.8320262124       18.7653074329       19.4573668617
  O         1.6246370217       10.7796332264       16.0179990493
  O        -0.2039904483        2.7565282574       15.8632055235
  O        14.0966942959       19.0478904057        9.2386581542
  O         5.9122154984       11.3241468793        1.3548692925
  O         8.3060498056       18.6366271256        3.4172159557
  O        15.0476372344        3.7436183596        7.5114386575
  O         3.0450660384        6.7231371465       18.3881733124
  O         0.7085111673        9.9416157656        6.4153848872
  O        12.2506566909        1.8471407050        4.8108578014
  O        18.8166451360       17.8167711781        7.8495550816
  O         9.2125874907       17.8257361949       17.7719807053
  O        17.1224578999       20.0868811823        3.9896164600
  O        18.1841733262        4.2220889412        8.4045035988
  O        18.6329701764       13.2952291346       11.0703823953
  O         3.8938565921        4.8299691463       15.8886479447
  O         4.5823302882       17.0717494739       14.4421976894
  O        15.4040790658       10.5971742860       16.9190647945
  O        16.3015846398       15.8647578028        3.0273123815
  O        16.1469707354        1.4954542769       14.0653776801
  O        15.5292905108        4.1706537999       14.0069925503
  O         5.8138860599        1.2437579462        7.8349422423
  O         2.1458684934       17.5662419569       14.7609778969
  O         7.3570497801       17.3194248123       19.6987355797
  O         7.7356219017        7.7122909265       19.0039292105
  O        13.2173238343       17.9643430491       16.3267454519
  O         1.8239784866        2.4638763874        5.3299321281
  O        16.3997186521        3.1414102109       16.1198664955
  O        13.9656138197        3.7582145407        4.6049983371
  O        -1.2921206327       16.5322084849       12.9962295222
  O        17.8622550569        8.9139369179       20.3548533454
  O         0.2665067585       15.9886365487        9.7391185066
  O         6.1094966321        2.6249599995       17.7394521740
  O         6.2351455478       16.6772553624       16.4200202962
  O        17.0005848557       17.8199184636       16.9341799898
  O         4.4187829819        3.2153490267        5.9497978613
  O        15.8501912501        1.5555552222       11.3690643032
  O         2.6214138994        6.5531653594        3.9911100692
  O        17.5420164736       21.0862974331        8.2908224755
  O         0.0350423482       18.4488084285       15.8426871691
  O        15.6964759124        8.5760533926        2.6346209099
  O         1.4571938231        5.5931830350        9.8347339058
  O         1.3330462529       19.7586635299       20.2842997906
  O         0.5732186215       12.2661536241        7.6708112691
  O         6.5572546874        4.5080664877        1.7340360134
  O         2.8922557195       16.1337212979       12.5538965921
  O         3.5075898628       20.7237216571        1.7173555568
  O        11.2835764041        3.6251556860        0.5730985567
  O         3.3192877014       19.9792986871       18.5973544494
  O        16.4760466130        5.9932699604        8.2066536761
  O         2.8821972865       14.7167316594        4.8817783722
  O        12.4927648226        8.8253347932        2.3992195405
  O        12.7017280278        5.3445706286       16.9590354156
  O         8.5137133000       15.0400819070       19.2040206318
  O         5.8568296082        8.9438121856        4.7619370613
  O         7.3544677875       19.7204855659       18.5194267598
  O         8.2053819117        5.2630439320       -0.2285916872
  O        14.4248029165       19.0015442454       12.8671979553
  O         0.9722818200        3.7503911212        2.2205166273
  O        18.6184529130       15.5325954113        6.3417617441
  O         8.1223124768        1.6930891456       14.7840172787
  O         9.0221326120       10.4882705838        5.4852245396
  O        17.1184439650       12.5173052470        4.5947701191
  O        18.1022529140        6.5947561441       16.9261240014
  O        18.9867547307        8.9413398578       16.1380624757
  O        13.8532809137        2.4474895635       15.4704956410
  O         4.4395872158       18.7696760654       16.6923093597
  O         0.1062042477        2.4695649381       10.0647851552
  O        13.9583202086       15.6664522167        4.4036640108
  O        17.6542947176       17.9834172859        5.5008805603
  O        15.7159479150        5.5572773801        5.7375547185
  O        10.0881584261        2.1093174327       21.8701232267
  O         4.9136759575        3.1161699444        3.0582217443
  O         1.2987147861        6.8289532569       15.9771236759
  O        18.3972153946       11.3950669039       15.7378364931
  O         4.9829807261       13.7670100705        0.2263920408
 Na        12.7695079587       14.8745300102        6.2536522297
 Na        -0.3386201743       18.9865858697       13.6785439921
 Na        14.4470007599        3.8496033318       17.6391187392
 Na        14.0798544574       17.4646580721        7.2775997072
 Na         4.2872265026       13.1999936718       17.5610657176
 Na        12.9790063645       19.3125835828        3.3610061179
 Na         4.9352888460        3.7758115346       19.1753491923
 Na         1.7776260061       18.6506056634        3.0948739959
 Na         5.5855686140       15.9267159806       18.5450777201
 Na        18.9854274205       21.7719637648        3.3412205837
 Na        19.1189573269       16.5953815325        3.7615266745
 Na         2.9715788906       15.7310167615       20.1295231768
 Na        14.5578817228        5.8828215237       15.2734959851
 Na         1.8775751999       20.6022134730       10.5817892795
 Na        11.3806497055       18.7660131159       17.5721300180
 Na         7.2342045607       16.6208466056       13.1331770913
 Na        13.4605451646        3.4164919696       20.6647144572
 Na         5.1111483546        0.2653409178       11.2988806073
 Na        20.1343200756       13.7511067304        5.5310338067
 Na        11.2431622718       20.2156201184        1.0446246934
 Na        17.2317152264       14.3462165839       12.7186100462
 Na         2.3063451226       10.0395574529        1.1922527648
 Na         4.7697795552       10.9655359671        9.8894998995
 Na        12.1574590683        3.7714779366       14.3082955320
 Na        12.7669414676        4.0348711722        7.8658154274
 Na        14.1964573172        8.4503044024        4.1852270226
 Na         1.2219017755        6.5265452891       13.5829783210
 Na         2.6171983478       12.4212250260       15.0585178758
 Na         3.8791967110       18.3376095542        5.6402574796
 Na        18.1692756580        5.3582879825       18.9150869557
 Na        10.7674395912       15.9425007586       -0.1304908610
 Na         1.4268942073       16.5032953089        7.0821840301
 Na         7.9185678141       20.8228090982        2.4778990075
 Na        15.0090329614        1.8812486495        3.7468600926
 Na        19.0461899075       11.8346726395       12.6886940579
 Na         8.1932587851       15.7592875122       17.2489053595
 Na        16.5628099358       18.8250512869       21.2919287523
 Na        12.6837651798       19.7940799715       14.5449227390
 Na         2.8225881056       17.5385348981       10.4320183920
 Na        14.3625349292       17.2305104970       14.3199286977
 Na        14.2391208149       14.3388371419       11.0933475454
 Na        18.3226048690        8.6254680739       11.9959143421
 Na         4.8303301396        9.4760760574        2.7499846192
 Na        15.0941202584        5.1853674563       12.1281141372
 Na        10.5740275269        9.7561465730        3.7131884575
 Na         6.6723338810        8.1531926732       15.6945465924
 Na         5.4680568843       18.8205995987        0.7356400011
 Na         7.2722563036       12.9849225236        0.3209660566
 Na        15.8108332866        8.0785946322        8.8843241856
 Na        11.4939381070       16.3355606126        3.1535184403
 Na        16.3758435827       19.1310958890        8.4099810031
 Na         4.8553142472       14.3031371946        2.7781964859
 Na        16.6259886998        2.3941469109        6.1756282414
 Na         9.6907336989       17.9124816569       15.3440404596
 Na         6.2473751199       17.4961963842        3.2661754803
 Na         4.3522622460        6.4596535362        2.2886247999
 Na        17.9934837044        5.6658519154        6.3980840024
 Na        17.9838356562       11.3886414395        6.4633543918
 Na        17.8404443288        8.8156540091        3.6851214720
 Na         2.4449920505        4.1440879231        8.5925833340
 Na        12.9129299751       13.9188233317       18.0388517293
 Na         9.8592832028        8.5266828297       18.3059201564
 Na         2.9606671235        4.1518554722        3.5725763439
 Na         1.2728156364        7.1839750251        6.5115781278
 Na        18.7834929765       14.2648775645        8.2452098818
 Na         1.2787135231       13.3798139805        1.6815894515
 Na         7.4995302954       10.9518274387        3.0360536182
 Na        19.9962807642       10.0511291390        4.2767439804
 Na         0.6747731770       15.3470213256       11.9052985011
 Na        11.6565591137       19.2416413611        9.0530559283
 Na        16.7841134622        8.6156543359       17.4343460172
 Na         1.0377767321        4.1113935158       11.5770976385
 Na        16.2199082073       14.7118421977        5.3686633129
 Na         9.2224581628        4.4214598096        4.8003182087
 Na        -0.9382549215       13.2170005698       19.2630473619
 Na         6.2579609166        3.4358025450       12.5719325271
 Na         9.8435617985       10.0756232858       10.4862790823
 Na        10.2038929986       20.3932350607        4.4231190685
 Na        19.7991110994       19.8099148143        7.0441160796
 Na        16.3159386662       15.6852949778        9.4918689103
 Na        15.8025260517        2.8393330305        9.4216379009
 Na         4.0813271291        5.6673810118        5.6357610773
 Na        16.1337207566       15.8677822802       17.9699598552
 Na        10.8867279874       11.9693714306       19.9739099753
 Na         5.2262047964        1.4979847451       15.9606977659
 Na        12.0438366157        6.5485538651        6.0613141695
 Na         9.3140269617        2.9634908455       13.1316213807
 Na        11.7203562805       22.1428189376       17.2585658288
 Na         6.8740916631       13.3700614423        8.0013404789
 Na        10.7116120169        5.5636961843       18.7240245077
 Na        12.1826250566        6.4553207656        2.7519672489
 Na         5.5644776486       17.0306097310        8.5603023023
 Na         4.1420351158       14.5832911873       14.7776446818
 Na         1.6187438887       11.5038091034       18.1093584726
 Na        12.8878673110       13.2320079549        3.4563335752
 Na        13.5203604073        1.5929013516        6.8809430966
 Na        10.4961401370        2.2969928596        6.9355947132
 Na        -1.2815801398       19.9604788847       10.6879480649
 Na        17.3568177724        3.2875860008       12.2140156311
 Na        17.8151435829        5.2609358034       15.0574698128
 Na         9.8088182982       10.6008595999       15.1459880724
 Na        -1.8111997777       16.2414851049       15.1651334335
 Na         3.1871880155        1.2681167354       13.7079303317
 Na        12.2159923017       12.5800720461        8.9797848908
 Na        19.3319049668        5.3354117642        3.5050333143
 Na        15.0723520024       13.5525788434       15.3339950302
 Na         0.0229161861       16.4112229216       19.8707812202
 Na        15.6531821071       11.1553091041        3.8096631446
 Na         3.5759957295        9.4746241469        5.5391490314
 Na         2.6335235712       12.1131140577        3.9696089902
 Na         1.9652144609        4.1112325795       17.0934980411
 Na        18.6925500807        9.2274853352        8.4518702118
 Na        16.1531362646       10.2268304458       14.8242531924
 Na         6.1968893629        4.5426881669       16.0769185175
 Na        13.4566570695        6.9130111425       18.9126891022
 Na         5.9602476686        9.7978274995       -0.2133438295
 Na         1.3967419776       12.3836052302        9.6991292729
 Na         8.7486196821        7.5363378100        1.7748682092
 Na         2.0581547441        9.3994600733       12.0324108893
 Na         5.4462735072        3.5259327078        8.4825366824
 Na        14.9737687743       19.4355191866       16.7713702715
 Na        13.8308784291       20.8083470452       10.5518971520
 Na         7.0241153078        7.7969822265       11.5571657533
 Na         3.7798524671       10.2776347068       16.7875984617
 Si         0.9137554154        3.6066922500        6.2107753093
 Si         8.0109986753        4.2151801368        0.9918386126
 Si         4.5625044640       12.1919780008        0.7067039222
 Si        17.8417678389       16.9256043753        6.8404965422
 Si        17.3055551894        2.5286758962       19.6180995449
 Si         1.7707278261        7.6724102672        3.2512590575
 Si        18.0306741725       12.4573758196        3.3160306929
 Si         3.4330205428        1.9682014100        5.7715162036
 Si         6.2541402783        4.1062018987        3.3178646207
 Si         9.4964572466        1.8820684148       15.8547003472
 Si        17.7961874638        2.4782348043       16.6437163409
 Si         9.4232791150       18.2991827567        2.4027643942
 Si        16.4504001379       19.0280995863        4.9866572255
 Si        14.2493637164       12.8844843762       20.3868682649
 Si        19.1640253093       17.4881135537        9.4804633848
 Si        10.6273891134        3.4836908328        1.9970538251
 Si         8.3892758784       18.4444027275       18.9999258457
 Si        12.0604280008        6.7109982254       16.2229019200
 Si        17.5678895949        5.4164487578        9.3490305190
 Si        11.4155121940        8.9050874040        1.1476185495
 Si        14.7271403813        5.2651197498        4.3788632267
 Si         3.2552137161       17.3936188639       13.4715279857
 Si        18.0219272253       12.9646759611       16.1770877645
 Si         2.5706638599       20.7541379846       19.8366262031
 Si        13.6839339749       17.5604788252       19.7749257320
 Si        14.4007220497       20.3466789958       19.7179206552
 Si        13.3695084921       16.4053444040       16.9412862278
 Si        18.1664830752       18.8762192191       16.8980400155
 Si         4.5180782366       20.9147444122        2.9606658415
 Si         0.7660335952        6.9505824816       10.0822553949
 Si         8.0887590223       15.9219741163        1.1091747133
 Si         3.4740950843       18.4380151902       18.0517751710
 Si        18.1404448846       10.5315498821       20.2677853459
 Si         7.4673114213        1.9620465733       18.3277224442
 Si        19.4305176904        7.4322823694       16.7759131485
 Si        16.6313190697       14.8550708823        1.7072292575
 Si         2.7901599388        8.8339960464        8.8286431546
 Si        15.9540223472       11.6122762262       18.0764180901
 Si        18.7991199987        2.6654254074        8.6958344548
 Si         0.2645230279       10.2850568176       15.3177095694
 Si        15.6748385068       19.9823541359       12.7156588640
 Si        15.2060235291        5.3229400753        7.3474082828
 Si         3.4439910853        4.1101438563       14.4877356952
 Si        15.3409965234        2.7916219795       14.8527611651
 Si        -0.2370985866       19.4576670709       19.9734318946
 Si         1.2060831397       14.6260326784       17.1943358412
 Si         1.6389368345        6.8083988196       19.3291249439
 Si         7.2028816763        6.3694399932       18.4052298487
 Si         4.3384453184        0.8393806929        8.4032070236
 Si        16.0435759060        5.0643390205        1.5458587857
 Si        12.2924790740        3.4319573062        4.6117994578
 Si         2.6798550799       15.9945439925        3.8811142381
 Si         0.5662612510        2.9757178911       14.3349046924
 Si         4.5589455099        7.3227794320       18.6906540530
 Si        17.0575315489       17.2533840273       11.9176267530
 Si         5.4297554671       17.8400825969       15.7226346016
 Si         1.5977137671       11.1652696729        7.1410368438
 Si        14.8981221299       16.6018658384        3.4688645446
 Si         7.3568258625       19.8593745735       13.9778849404
 Si         1.7968630165        4.2063113789        0.9179975624
 Si         1.3200705775       17.4150438891       16.1542775977
 Si        16.4266361611        8.0625331666        1.2464374882
 Se         4.3232813323        8.3701866849       13.6869203711
 Se         7.3317299157        5.0359769103        6.8601213790
 Se         5.6852118148        5.7421373271       10.1639545564
 Se         8.1829485061        5.7122672903       13.3572619449
 Se         8.3751838043        3.0286060275       10.1548067341
 Se        11.6054516637        1.3695287902       12.3040677896
 Se         3.2276005015       12.1957614252       12.0250130829
 Se         6.0033901035       12.7157390843        5.0827908001
 Se         7.1611738678        9.9712805850        8.5475652432
 Se         7.6319445241       10.3703774759       12.9792448935
 Se         9.6604333209        7.3395183101        4.5891306753
 Se        10.2245938990        7.4731733977        9.1135789155
 Se        11.0235928032        9.2300059700       12.9976992871
 Se         8.3488802515       10.9883845857       17.6050162979
 Se        12.3413543601        5.1449994060       11.2311345867
 Se        15.8007976382        7.9066408610       13.4725418376
 Se         6.7843381179       16.5974667432        5.9666202510
 Se         3.3723077836       14.7513040333        8.7104483828
 Se         6.9278264106       14.7427964710       10.8356520794
 Se        10.0506867529       13.5753996084        3.5552198688
 Se         9.6538014394       13.7431739059        8.1632616591
 Se        10.9049972034       12.5162617199       11.5055643206
 Se         8.3374687206       14.4187744753       14.6283463126
 Se        16.4780403169        8.9879698762        6.1074749139
 Se        12.7714366906       11.5219246543        5.9167915279
 Se        15.0863714935       12.1840960682       12.7429743728
 Se        12.0721366227       12.2062443259       15.8988840144
 Se        13.3019674438        9.5738576529        9.6891770554
 Se         8.7004558282       18.0848801605        9.7132017364
 Se        11.3808717888       16.4681797541       13.0287461239
 Se        11.1564338979       17.9441782254        6.3199877875
 Se        12.9055319143       15.5746503198        9.2190198573
 Se        15.5895398571       13.1426895208        8.2339721520
 Cd         5.5094169178        7.7240542021        8.4007705521
 Cd         8.7148558904        5.4019689930        9.0536805104
 Cd         3.7173184839        6.6116588447       11.8052790922
 Cd         3.5939885092        7.0788651863       15.8367913084
 Cd        11.0142241670        3.0864512813       10.3481518819
 Cd         7.9811115190        0.8736892055        8.5472583121
 Cd         4.0154620232       13.7427861150        6.5027244617
 Cd         6.8305758875       10.4357027839        5.9972431783
 Cd         5.2277304669       10.9525954279       13.4163712592
 Cd         7.1485677163       12.3288510805       15.8857033203
 Cd         7.0473476612        7.2132976269        5.2026448127
 Cd         9.2958228607        8.8727159844        7.0272296426
 Cd        10.5041679517        6.5562449620       12.7109417067
 Cd         9.2745095273        5.5134071990       15.6348831516
 Cd        12.8082082489        7.1080666747        9.3921519684
 Cd        13.0940318319        8.2320635112       13.8068359623
 Cd         7.8208803749       14.7293692055        4.3579018790
 Cd         4.3657086277       14.4571657348       11.3256208043
 Cd        10.8100280948       15.1012502518       10.8631190775
 Cd         6.7731398905       21.7873961260        5.9969759509
 Cd        10.1475060496       12.2701059795        5.9117919801
 Cd         8.3187586721       12.8821672056       12.1947993265
 Cd        10.9783421158       14.7343797595       15.1402188649
 Cd        14.2059889610        9.6866464304        1.1539492041
 Cd        14.7788444428       10.6743559562        7.5742972139
 Cd        12.6896169389       11.6851138173       13.1981393455
 Cd        12.9943981316       10.2214339434       17.3385037002
 Cd        15.3384405710        9.6548210981       11.3947721650
 Cd         8.5635428532       18.3085700135        5.7247651688
 Cd         9.7248273954       18.9131777008       11.9865524354
 Cd        14.0686514848       17.6252973615       10.6976115401
 Cd         9.6674059524       16.1830466349        7.7252705643
 Cd        17.2384484004       12.0741290590       10.0439273674
