438
 i =     7600, time =    15200.000, E =    -10932.3715905605
  O         4.1660970349       16.4723453096        3.4392963763
  O         3.7081800656        8.6787468455       10.2975360345
  O        14.2103513662        1.1010885192        2.0343910575
  O        11.7584075170       15.6634260391       17.1813544620
  O         1.4533036230        7.1076665842        1.6198444451
  O        15.8162671566       16.3542307923       11.7815811562
  O         4.1429284842       11.2688040608       18.6701134381
  O        17.4650346740       15.3280387846       19.9519422677
  O        15.3278870778       14.0043910711       21.1123912542
  O         1.8286642425       15.4826064142        2.6058574605
  O        11.3197174346        7.4046461113        0.3688219425
  O        17.9703021494       13.6751844023        2.4767931644
  O        10.8127411521        6.4050146785       16.7328340069
  O         1.3828339825       14.4770744785       18.8749199728
  O        17.7572530322        3.0980205038       18.4045197619
  O        12.0799764490        2.0497814135        8.7423713429
  O        13.5541252438        1.3422319461       18.6564231851
  O        17.1546623344        6.4141273256        1.5925939693
  O        10.7518545537        0.8101314725       16.0993678429
  O        15.4359892958       19.3125200125        6.2936399310
  O         4.5564446964        8.3448735692       20.1898672064
  O         3.2256890497       18.7041017685       12.5958827933
  O         1.1976942248        7.9952907324        9.2662035471
  O        16.2666616532       16.4194932657        7.3727568532
  O        17.2589892735        3.7394376156        1.6401648253
  O         7.5072415430        5.9319525486       16.9110242773
  O        15.9303183332        1.8021382742       19.6406000093
  O        -0.3716996361       18.3743636354        2.0387376509
  O        -0.2904714735        4.0984518818       13.7109349791
  O         2.0828577869       17.8372545076       17.5981313340
  O        11.9125021918        3.7738659978        3.1573753440
  O         0.6197756228        2.4013032503        7.6754638972
  O         4.4682671632        2.8041608932       14.4487302833
  O        16.7794069547        4.6743861390       10.7466920256
  O         5.5187109025        5.1510971696        4.0361197376
  O        11.5553450791        4.0154448545        5.8028434461
  O         4.2751169114       18.9834767002        9.5468416359
  O        14.3652290470       15.3385707437       16.0997433808
  O        17.0906203211       11.3259715103       19.3126316500
  O        14.9923798765        4.9405410809       20.2321139467
  O        18.9855675497        3.4344724756        5.4177753539
  O         3.3176494156        7.8195573757        7.5771395645
  O         4.4351189893       17.3722327004       18.8388582515
  O        13.0513665741        7.9373923510       16.2041677146
  O         1.9595534620        3.6391576784       15.2076530078
  O        16.0496834880        5.1589235980        3.4973877854
  O        14.1899295864       11.7281863448        1.9282614897
  O         9.4990887763       18.7862263970       20.6014154039
  O         5.8464437403       19.6482631674        2.6681704184
  O        17.1633317951       18.7839523293       12.5718319044
  O         4.8172068241       12.3529967453       15.1852968302
  O         0.6837058699       15.9275096729       16.6156929548
  O        11.3595449860       18.0636106627        3.0115847851
  O        17.6908094338       11.1449683989        2.4757143532
  O         9.6341930324       16.3447418334        2.0948532217
  O         0.8927143519        1.6370656865       13.8176039265
  O         7.3412473841        2.9608240228        4.0726703459
  O         0.8257789562       18.4402762711        9.7446860977
  O        18.3687843308       20.7766456757        0.8867159443
  O         3.2570082198        4.7747540979        1.3575140027
  O        17.4669794608       13.7236481650       14.8179931313
  O        -0.1319213800       13.5216884605       16.8585804709
  O        14.7585218187       12.5336548156       18.8080489951
  O         0.6031846606        7.2880059889       11.9016400286
  O         8.2110702390        2.7008315673       19.9621368208
  O         0.1849653353       11.1732532337       19.9684583036
  O         3.9713788196        2.2373353599        9.0847317642
  O        10.0986259630        3.3429295780       15.3775470080
  O         0.5341467047        7.4963681778       18.5409632234
  O        12.7514732616       13.6815999063       20.3448700985
  O         6.0299184378       19.4093549446       14.7108687467
  O         3.5411536719       12.0593760214        1.8307860575
  O        14.2056619333       16.2737198131       18.4881125367
  O         2.4973223195        2.7111866970       19.3480973904
  O        19.4561241143        9.9971528574       13.7791872274
  O         7.1266386872       15.3021432893        2.4554268626
  O         0.0696122607        7.3966741885        3.9426607514
  O        17.8043234610       17.4717853227       10.3962822755
  O         9.0337251413        2.2153173959       17.4300043792
  O        13.8407041190        6.0742823943        7.7243469196
  O         2.4691163128       10.1799929991        8.6253969275
  O         2.1965021764        9.0373743962        3.3740974784
  O         8.1063677124       18.5553685831       13.6105775051
  O         3.6230394732        0.4708683557        7.0008997526
  O        12.5019017536        6.0739091118       14.5692417790
  O        12.4356631823        9.9451348760       19.1843032089
  O        15.5365249416        7.9718305702       19.6217003067
  O        10.1395444287        9.6458644586        1.1627964945
  O         6.9118860394        1.5600074263       12.7008486878
  O         8.7539793118       20.4482813199        6.3879656244
  O         2.8741800082       11.4547660264        6.3234518346
  O         3.0709694994        4.6931770464       13.0862711091
  O         5.6625527803        6.1456017594       18.7617515462
  O         1.9575701214       17.1219059173        4.7991714138
  O        17.4823145050       20.1873927756       17.0410432066
  O         2.5601547140       14.1068166029       16.4181294620
  O        -0.6649195885       18.5371636527       18.7926968781
  O         1.5851668269        4.8151333339        6.6714694104
  O         3.8366931075       20.0805033395        4.4711609950
  O        15.3110356491       17.9117884078        4.0346431269
  O         9.5377343914        4.3977027753        2.0670210816
  O        12.4006023907       17.7127674382       19.5973161467
  O        14.4793418407       16.8062614826        1.8556433191
  O        16.7361751231       12.9313929379       17.2034985819
  O        13.6585895044        6.3416092556        4.1943277690
  O        17.2819208747        9.4256865482       10.2251880157
  O         4.8504065503        8.2765370050       17.3264348821
  O         1.0959063500        5.0688494626       19.2899171345
  O         0.4789473291       12.3585718168        3.6587275475
  O        18.5915897675        6.3184599923        9.7878581829
  O        14.9070134347       18.7212808761       19.6153267233
  O         1.5709852424       10.7908109873       16.0140889997
  O        -0.2699916026        2.7520630239       16.0608504324
  O        14.1654626484       19.0973534292        9.3572700311
  O         6.1191270141       11.4735709423        1.2772445765
  O         8.7732591516       18.5168348510        3.7752198310
  O        15.0190762892        3.6404965354        7.7891028578
  O         3.1008492647        6.7370880445       18.6978801724
  O         0.7134035760        9.7531699238        6.6440722296
  O        12.5124115337        1.6247611279        4.9418333793
  O        18.6927889410       17.5978266899        7.8553489923
  O         9.3077706198       17.8758996979       18.0454776224
  O        16.9521763021       19.9424934340        4.1526573075
  O        18.3849434136        4.0977014517        8.5738240299
  O        18.5788928286       13.1155098349       11.0606738116
  O         4.1433869103        5.1215259594       15.6570163706
  O         4.6247493744       17.1460158638       14.2765438931
  O        15.4561697041       10.3800461784       17.2338800242
  O        16.4684483599       15.7591947165        3.2342530980
  O        16.3569562768        1.3486908836       14.0802109182
  O        15.4731066398        3.9368284707       14.0614492916
  O         6.1091369376        0.9837126234        7.9353504963
  O         2.0982636352       17.6009993066       14.9014764533
  O         7.5396953231       17.2560358058       20.0555985089
  O         7.7763351130        7.8870617395       18.7415530568
  O        13.2596886054       17.8753618606       16.4305237116
  O         2.0503957673        2.3373592926        5.5731961920
  O        16.4745821618        2.9284963865       16.1874296098
  O        14.0329837636        3.7768990683        4.5656277516
  O        -1.1046755034       16.4661523435       13.0114144855
  O        18.0125157178        8.9821162713       20.4449674120
  O         0.2690024358       15.7561906124        9.5104184934
  O         6.4621425544        2.5795687788       17.9727741068
  O         6.5242426457       17.1356087043       16.1919473435
  O        16.9848069977       17.7540199758       16.7335846177
  O         4.6351148693        2.7713671100        6.0446588279
  O        15.9290088776        1.6559445092       11.5641288630
  O         2.5540760838        6.3604555716        3.9054215949
  O        17.7747994612       20.9256669143        8.8207320564
  O         0.0767211865       18.4647450713       16.3321755020
  O        15.8664034659        8.4952198102        2.8015137075
  O         1.7457377706        5.5737664548       10.3002718073
  O         1.3934502715       19.5938487417       20.0486169690
  O         0.7835922270       12.2020658746        7.8246225195
  O         6.7447105364        4.4079690815        1.9128455443
  O         2.7437888389       15.9826731964       12.7964163090
  O         3.4348591202       20.3523907231        1.8026335838
  O        11.2879107976        3.3978286715        0.5967274741
  O         3.5634817470       19.8129339362       18.5744580940
  O        16.5499236267        5.8841811211        8.2797851988
  O         2.8193188966       14.6371394641        5.0019647438
  O        12.6165948748        8.7468323757        2.1850105497
  O        13.3969199949        5.4610684755       17.0042166261
  O         8.6181123463       14.9090983875       19.4580770439
  O         5.8225553414        8.8015844559        4.8728193810
  O         7.6802942852       19.8379644285       18.9576694351
  O         8.2674122394        5.4155779475        0.0842519485
  O        14.5297320353       19.0050993323       13.0106262714
  O         0.9969201095        3.4482358479        2.2057805701
  O        18.6217680044       15.4507165702        6.3555571831
  O         8.2362332949        1.4487991463       14.9998705931
  O         8.7113858352       10.5771277040        5.2250082845
  O        17.3341398260       12.4196649265        4.8165105639
  O        17.9939832618        6.6335763073       16.9191351505
  O        18.9613839943        8.9693272254       16.3392753047
  O        13.9886979933        2.0835231772       15.3323024553
  O         4.3516531014       18.7199125489       16.4642009993
  O         0.3927210473        2.4533070927       10.3298683908
  O        13.9013663181       15.6316922834        4.3230551183
  O        17.6493058386       17.8207038741        5.4683374955
  O        15.7380828475        5.3167988616        5.9080297342
  O        10.1371173606        1.8070538044       21.9553084200
  O         4.9030386929        2.7890464951        2.9657215092
  O         1.2910693472        6.9490705353       15.9190730135
  O        18.2531976860       11.3712153770       15.6683823725
  O         4.9542966285       13.6124415226        0.0319058145
 Na        13.1378515494       14.6234318291        6.5934507238
 Na        -0.8456115765       19.5664662117       14.4219860197
 Na        14.5002066199        3.2928705136       17.5091709367
 Na        14.3138151380       17.5746637241        7.5118589784
 Na         4.2248662223       13.1308061738       17.3655793647
 Na        13.3211350083       19.1594382449        3.7596366311
 Na         5.1773303720        3.8265809775       19.4406853547
 Na         2.2153268115       18.3643121889        2.7009196057
 Na         6.1748955534       16.1944576345       18.3613653020
 Na        19.1805554373       21.3424511678        3.5136470744
 Na        19.0920066362       16.6444196673        3.9961983142
 Na         3.5124459848       15.4378388163       19.9470139347
 Na        14.6355369334        5.7160386204       15.1579773662
 Na         2.1326691183       20.0984299038       10.5877479138
 Na        11.4485311065       18.1871708510       17.6022509360
 Na         7.1179705372       16.5275124057       13.7639261108
 Na        13.4596372956        3.4894187211       20.6187046775
 Na         5.2464177010        0.0135256737       11.6006193436
 Na        20.0359270734       13.6491069730        5.7504522447
 Na        11.6370348892       19.6931394777        1.4389167489
 Na        16.8516819197       14.3500859094       12.4969724827
 Na         2.6582013806        9.8143323543        1.1739055409
 Na         4.3788699731       10.7568065585        9.7017711960
 Na        12.5183553014        3.7688367031       14.4451687732
 Na        12.8111242609        4.0559064112        8.0087791347
 Na        14.2140225869        8.4836946336        4.5235851674
 Na         1.2753653514        6.0482479181       13.8741617497
 Na         2.4776950296       12.4043931520       14.9288937337
 Na         4.1051948095       17.9917115218        5.6042242788
 Na        18.2217951151        5.4613859956       18.8484193146
 Na        11.4471348834       15.6059762880        0.7641855548
 Na         1.6392685064       16.1599192719        6.7923366829
 Na         8.0045716214       20.4070950439        2.6227486094
 Na        15.3280632717        2.2864812411        3.5704162245
 Na        18.7928905013       12.0009899227       13.0565782174
 Na         9.4268313297       15.6353905627       17.4723506427
 Na        16.4168595334       18.6118554089       21.3993381201
 Na        12.6507357561       19.5737392165       14.6982380578
 Na         2.7313419470       17.3167091930       10.3494476570
 Na        14.5054455935       17.1245783418       14.4764346971
 Na        13.1290397152       14.4811332140       11.8479393187
 Na        18.1883147883        8.4235937880       12.3915004213
 Na         5.0710917837        9.8535093294        2.8131713908
 Na        15.0815371970        5.1842207778       12.1364529804
 Na        10.8204410889        9.8826509757        3.3252077566
 Na         6.9449657737        8.4574811301       16.1003789622
 Na         5.5823188277       18.9241258466        0.5228762487
 Na         7.3867284591       13.0605030206        0.1941843345
 Na        16.1373976678        7.8869419610        8.9558021007
 Na        11.5198461370       16.1520519157        4.1040854636
 Na        16.2710370780       19.0453520237        8.6771547787
 Na         5.0469615265       14.4541749134        2.8129617616
 Na        17.0192173435        1.9851395692        6.2721889592
 Na         8.8043642884       18.2210250652       15.8634687877
 Na         6.3926977608       17.4628443855        3.2993890707
 Na         4.2254171818        6.5395025675        2.1884804924
 Na        18.1001456817        5.3210249014        6.3446358989
 Na        18.1790377490       11.5761958443        6.7559887199
 Na        17.2401744973        7.2081117942        4.1649644414
 Na         2.4272914146        4.0262557304        8.7909264174
 Na        12.8511092375       13.7344233912       17.9725160973
 Na         9.8379163920        8.3480735114       17.8599472190
 Na         3.0321932392        4.1469665537        3.6304331326
 Na         1.1132036459        7.4768010863        6.3689113064
 Na        18.4560032794       13.9547906735        8.5853101930
 Na         1.4781141634       13.3555822910        1.8134654894
 Na         7.7913270183       11.5212626773        2.8948072076
 Na        19.5642043146        9.8628884519        4.1756412002
 Na         0.6732943116       15.4223098403       12.0647556880
 Na        11.9511349324       19.2435733900        8.8847334878
 Na        16.9513332440        8.5601337055       17.8237693241
 Na         1.3404347398        3.7857349883       11.7305757030
 Na        16.4858828898       14.5888840575        5.5494674722
 Na         9.3732241531        4.3543047319        4.5024347081
 Na        -0.7934969562       13.3925816146       19.1799129683
 Na         5.3630357376        3.3026312841       12.1238425135
 Na         9.8666992065        9.8259431157       10.3663299875
 Na        10.4427947463       20.1160675680        4.6017482370
 Na        20.1936507135       19.4023716980        7.5446602956
 Na        15.8222405579       15.4879818982        9.4808093970
 Na        15.9678416415        2.6954651455        9.7098887823
 Na         3.6146166964        5.7444409096        5.8099441101
 Na        16.2290766331       15.4898763176       17.9203086276
 Na        10.8849308656       11.5674218650       19.5910577829
 Na         5.2961542048        1.6456166596       16.2739662958
 Na        12.1183738386        6.3255913578        6.0686200849
 Na         8.8737184521        2.7803979307       13.0521738415
 Na        11.4427546786       21.4454374772       18.1649283947
 Na         6.8033354816       14.4767689523        7.7872882129
 Na        10.9052354114        5.2915930343       18.7363248682
 Na        12.1120503929        6.5490538583        2.8312048881
 Na         6.2465885315       17.6881634599        8.8973407611
 Na         4.0348749905       14.6622277998       14.4629779831
 Na         1.7073933101       11.3760657311       18.1849131964
 Na        12.8583250972       13.4336324593        3.3607862731
 Na        13.5870841409        1.2588565752        7.0770679032
 Na        10.5477773615        2.3396395829        7.0219176273
 Na        -0.9552616320       19.9134848637       10.9751130368
 Na        17.3532874848        3.3514217085       12.3804224760
 Na        17.9983441255        5.1901521599       15.2319453369
 Na         9.7622025027       10.9541553987       14.7731159186
 Na        -1.4953001446       16.0196529038       15.1960135141
 Na         2.9757706108        0.9689260254       14.2186853676
 Na        12.9494095061       12.3226078075        9.3492185061
 Na        19.5090994520        5.1238065083        3.3332727788
 Na        15.1627384831       13.4268694457       15.2372021111
 Na         0.2493656794       16.0231053963       20.3223159191
 Na        15.8968855121       10.8068505807        3.9504210105
 Na         3.6657122161        9.2571182352        5.6038281775
 Na         2.7101345948       11.8490670565        3.8492343773
 Na         2.3431660605        4.7251727861       17.1699486402
 Na        18.7859853758        9.2161347007        8.5420474816
 Na        16.2280422554       10.1553583382       14.9344109910
 Na         6.1308175889        4.5036183991       15.8272921340
 Na        13.7971740218        6.7510408008       18.9846694305
 Na         6.2404650925        9.9010327835       -0.4696334032
 Na         1.2922093919       13.1462533636        9.9869326115
 Na         9.0212872324        7.7188051746        1.3824464565
 Na         1.5340721231        9.3389912903       12.2527728045
 Na         5.7058747641        3.5684515601        8.5839508300
 Na        14.7531531718       19.5470515902       16.8197055259
 Na        13.6963122484       20.7870657598       10.7339216256
 Na         6.8558401314        7.8763438715       12.1463397385
 Na         4.1031717256       10.2982532632       16.4891488148
 Si         0.9383940843        3.3847065325        6.3350049884
 Si         8.1774678087        4.2000998159        1.1122619853
 Si         4.6688704191       12.0806299870        0.6268652371
 Si        17.7406182482       16.7998876104        6.7383490244
 Si        17.3430203352        2.5081558943       19.8424764085
 Si         1.6059001218        7.4998321578        3.2777793945
 Si        18.2331472901       12.3821846452        3.4905785285
 Si         3.5311310544        1.6305085487        5.8334487324
 Si         6.1769259848        3.8253030359        3.4082264779
 Si         9.6039607146        1.9125759517       15.8846513108
 Si        17.8276459876        2.3921465342       16.8807032579
 Si         9.8144386039       17.9325729912        2.7191091542
 Si        16.3293811082       18.8009479832        5.0573831163
 Si        14.2471862458       12.9825792501       20.3453969971
 Si        19.1524209890       17.2208554503        9.4150231956
 Si        10.6865086422        3.1487444238        2.0004330056
 Si         8.5584260677       18.4359183486       19.2632160342
 Si        12.3678477287        6.4608634164       16.2344609333
 Si        17.5069843804        5.1830017175        9.4498281368
 Si        11.5689892871        8.9070632100        0.8348838114
 Si        14.7360509098        5.2065908796        4.6045360249
 Si         3.1303050648       17.3544359559       13.5364321178
 Si        17.9820505374       12.9083108052       16.0141074392
 Si         2.6969779117       20.5140721106       19.7659704829
 Si        13.9052880285       17.3965389264       19.7333597249
 Si        14.5006423577       20.3301918167       19.8736748466
 Si        13.3312627092       16.3302589821       16.9389458283
 Si        18.0982399838       18.7044998892       17.2735005829
 Si         4.6317303567       20.5260497378        3.0092414997
 Si         0.6918920733        6.7685399951       10.3746097668
 Si         8.2382054039       15.8344424340        1.4115804084
 Si         3.6857474771       18.3260114262       17.8784743501
 Si        18.1912595850       10.5967792060       20.3879248904
 Si         7.7796348761        1.9868336038       18.4859461079
 Si        19.4238825364        7.4514858591       16.8157551327
 Si        16.7992268530       14.7363719426        1.9230554696
 Si         2.7163334153        8.5638709168        9.0231654560
 Si        15.9753120122       11.6528622933       18.0621061096
 Si        18.9405641661        2.5738590158        8.9180731191
 Si         0.1895723904       10.1961457457       15.4289922269
 Si        15.8707763148       19.8862973408       12.7048894730
 Si        15.2217190482        5.2359734219        7.5254784521
 Si         3.5200091834        4.0936483512       14.5363712548
 Si        15.4093016479        2.5615007678       14.8622245087
 Si        -0.2133877076       19.3188249337       20.1751478826
 Si         1.2353668470       14.4584315500       17.2631525764
 Si         1.6640032782        6.7119441016       19.4769807573
 Si         7.2776120450        6.3837136763       18.4822973667
 Si         4.5070425391        0.8483808019        8.5024521385
 Si        16.2081627324        5.1255750330        1.8494169683
 Si        12.4034501477        3.2569659726        4.6926511606
 Si         2.6952196646       15.9174005783        3.9344095699
 Si         0.5983460635        2.9978640571       14.5166661539
 Si         4.6059725016        7.5012991577       18.8061470173
 Si        17.3037351736       17.2001010730       11.9818064508
 Si         5.4853530149       18.0182204437       15.3954210763
 Si         1.6529951583       10.9187419924        7.3352939484
 Si        14.9306485481       16.4273471879        3.3879045954
 Si         7.3728449185       19.9798140163       13.8957617685
 Si         1.9398546450        4.0241266573        0.9698251752
 Si         1.2560902368       17.3807473986       16.2839656731
 Si        16.5748689676        8.0046404817        1.4558240108
 Se         4.4589715481        8.4525127632       13.6807484352
 Se         6.9195949192        5.6930268016        6.9106305133
 Se         5.6990453598        5.6582627101       10.5200361009
 Se         8.3017362540        5.6214117977       13.2156854197
 Se         8.4092098842        3.2351056065        9.8888967946
 Se        11.4587420835        1.2515746030       12.4967152450
 Se         3.0223579353       12.3244374192       12.0494012048
 Se         6.0467911789       12.7515212282        4.9523402087
 Se         6.8646350625       10.1389035989        8.7794335769
 Se         7.6059732356       10.7750207760       12.6476753679
 Se         9.4524290318        7.1144158815        4.0902021874
 Se        10.0806144560        7.7700671475        8.3759884266
 Se        10.9627602186        9.1428654429       13.0868203886
 Se         8.2661339099       11.0541410539       17.3252161192
 Se        12.3541208649        5.1164680523       10.9962730329
 Se        15.8169960149        7.7627455711       13.4921251407
 Se         6.5859792389       16.6879814221        6.0126660965
 Se         3.9233629370       15.0215877089        8.6256309605
 Se         7.1119613029       14.8246947626       11.0419331735
 Se         9.9323452108       13.4635125246        3.6504364245
 Se         9.6640708607       13.5618867516        8.3001360274
 Se        11.0708631114       12.4985646482       11.5026340881
 Se         8.7657302432       14.5168370763       15.0271233416
 Se        16.4477861334        8.9502541013        6.3331003910
 Se        12.6201520740       11.6387568755        5.8686404328
 Se        15.1197296388       12.1209979418       12.4340100468
 Se        12.2203832919       12.0375580723       15.7369792479
 Se        13.4356622106        9.4761576499        9.5119574383
 Se         8.7576053286       17.9319919009        9.9164954412
 Se        11.6660901832       16.3491543584       13.0646454887
 Se        11.1423261654       17.6923004339        6.5284674516
 Se        13.0131690349       15.5979750576        9.4297111837
 Se        15.8518654105       12.8463272356        8.1842527389
 Cd         5.3276475827        7.2833888952        8.4646851896
 Cd         8.5634546070        5.5967267435        8.7206223532
 Cd         3.6554851145        6.5788183445       11.7233729154
 Cd         3.5300980488        7.2806825436       15.7977548500
 Cd        10.9721283284        2.7599401861       10.3625916133
 Cd         8.2810066620        0.7696156786        8.6877248931
 Cd         3.9877128360       13.4540155548        6.5412585288
 Cd         6.6285809602       10.4787334933        6.1892861371
 Cd         5.0923936185       11.1431452223       13.2554241206
 Cd         6.9872367525       12.5154474983       15.6453508247
 Cd         6.7854722730        6.9725286614        4.7074161935
 Cd         9.2542291002        8.6841053774        6.2059803337
 Cd        10.7131840169        6.4402676411       12.5280618264
 Cd         9.1787445412        5.3764393389       15.5880375376
 Cd        12.6590337401        7.1034088357        9.1908058948
 Cd        13.1929555043        7.9515610447       13.7202269717
 Cd         7.8969678788       14.7453964585        4.4832947945
 Cd         4.5719540606       14.2643644251       11.0801298656
 Cd         9.3151555262       14.1349086012       12.5501071042
 Cd         6.8177815122       21.3911942880        6.0370148520
 Cd         9.8688444874       12.3623143444        6.0961936577
 Cd         7.8096805903       12.2732938548       10.3483392644
 Cd        11.3618220976       14.7634312166       15.0940144777
 Cd        14.3774492241        9.8009469810        1.2187167828
 Cd        14.6009579262       10.5795159180        7.1802587246
 Cd        12.7203189240       11.3157834437       13.1821958504
 Cd        13.0352120640        9.8449878578       17.1208133367
 Cd        15.3652138324        9.5985623836       11.2906559028
 Cd         8.5590895100       18.1428145355        6.0871212652
 Cd         9.8629966494       18.5403831606       12.2483498148
 Cd        14.0710470734       17.7013248531       10.9804489590
 Cd        10.6023973863       16.0956763548        8.6267747589
 Cd        17.3365508916       11.6447837817       10.2183460192
