438
 i =     5900, time =    11800.000, E =    -10932.3771879134
  O         4.1161996961       16.4208407067        3.2291602409
  O         3.8216340954        8.6429173046        9.7448463253
  O        13.9738471490        1.3690284021        1.9162042551
  O        12.1007887198       15.8966760329       16.9635313216
  O         1.8033268417        7.3580001341        1.5538900002
  O        15.9619596709       16.5084570160       12.0853069467
  O         3.9671316844       11.2082352674       18.7130413740
  O        17.5636377385       15.9400326357       20.0585790493
  O        15.5326643411       14.1996924946       20.4630918716
  O         1.5816185091       15.7573509630        2.6313335080
  O        11.4339546138        7.6234487522        0.8093887267
  O        18.0173931192       13.7966094733        2.1156614862
  O        10.8486698519        6.6340938677       17.0160987783
  O         1.5854890412       15.0364315500       18.5430846604
  O        18.0053019218        3.2774976931       18.4835815588
  O        12.1134934997        2.0139381357        8.6689819330
  O        13.8111558512        1.6127641611       18.5701007367
  O        17.2865505511        6.4760017824        1.4581627283
  O        10.7254641828        0.8659713393       15.9300099113
  O        15.5503328450       19.3892063394        6.2659611896
  O         4.7054950870        8.2143016399       20.0995904518
  O         3.2191817448       18.8890025740       12.5496824492
  O         1.3001121137        8.0236170127        8.9473935962
  O        16.3117335754       16.3130539089        7.0614298310
  O        17.4079247933        3.9295304070        1.5140831037
  O         7.5177683071        6.3175404518       16.8359222493
  O        16.0678326979        1.9062037330       19.7355045786
  O         0.1837294737       18.5624576484        1.9574872591
  O        -0.0130789792        4.4884707282       13.9826495161
  O         2.3897733648       17.8553605481       17.4388497493
  O        11.9552250878        4.0986835203        3.0894760174
  O         0.8689951857        2.5059846337        7.4824181512
  O         4.5167385496        3.0479885233       14.2401800824
  O        17.0317061342        4.6068809490       10.7130964613
  O         5.4625009815        5.1859629050        4.1353413390
  O        11.4439787279        4.1793988841        5.6866081371
  O         4.0368936068       19.0310389988        9.3864484283
  O        14.5750409570       15.6699057278       16.1768316852
  O        17.1823422267       11.2792147210       19.1272033270
  O        15.0020942648        5.1667706523       20.1380066318
  O        19.0050055105        3.4150273390        5.1896770786
  O         3.2938989320        8.1739882668        7.1454878463
  O         4.7069683602       17.4899716642       18.5306757127
  O        13.2310665269        7.9200029131       16.3742335740
  O         2.1407180154        3.3024854146       15.1198321743
  O        15.9783340510        4.9696479704        3.3672104770
  O        14.6995400224       11.8973361611        2.0964305924
  O         9.7087458934       18.8648244095       20.4065656510
  O         5.8492656428       19.5147582938        2.7775032179
  O        17.3054362915       18.9145411609       12.5437134082
  O         4.8399893706       12.3103882158       15.2234455439
  O         0.7542535331       16.1011274033       16.2271622107
  O        11.2692471287       17.9655143295        3.0557037242
  O        17.8926825638       11.1587058348        2.3629838067
  O         9.7016221492       16.3416089606        1.6011009895
  O         0.3691601607        1.8356368267       13.7146142878
  O         7.4457336785        3.1903181277        4.0872837689
  O         0.5092207408       18.7311780908        9.9215807663
  O        18.4492137961       20.8331863711        1.0482782713
  O         3.4088698226        4.7862099321        1.5694570893
  O        17.6929225724       13.8899268561       14.9628760973
  O         0.1576456060       13.6651697979       16.8659167768
  O        14.7984688183       12.4451514349       18.7334491549
  O         0.9105323808        7.5206935088       11.7250584835
  O         8.1697963022        2.7520288361       19.9334623643
  O         0.3222835943       11.2319055615       19.8486356332
  O         3.8698164977        2.3150112176        9.1413893975
  O        10.0487214910        3.4550217653       15.2558156802
  O         0.7697463442        7.6154764741       18.5399210517
  O        12.8608228436       13.4885772293       20.2123436588
  O         5.9719357058       19.5739507523       14.5630221784
  O         3.4497516580       11.9347804912        1.9184457934
  O        14.1671339189       16.5491783339       18.6608001219
  O         2.7942661059        2.9226232113       19.3260823010
  O        19.4427356202        9.9816181688       13.8914054904
  O         7.2237196966       15.3565537599        2.2846866282
  O         0.2816778917        7.5698711906        3.6796200436
  O        17.6696318205       17.2357851114       10.3177815244
  O         8.9627639967        2.3956175462       17.4039143924
  O        13.9916105860        6.0359073428        7.8096663940
  O         2.3482863858       10.4390343224        8.3601615769
  O         2.2950849530        9.2947836162        3.2693622484
  O         8.0699662294       18.5741524197       13.3308778169
  O         3.4938399226        0.5966773994        6.9281420392
  O        12.4011822953        5.9048697708       14.7719792404
  O        12.5382157183        9.8696366606       19.3113358605
  O        15.6301846662        8.1600389549       19.3826143727
  O        10.3085696280       10.0208049992        1.3148045591
  O         6.9217799981        1.6158136426       12.4756578701
  O         8.6099938455       20.3212182582        6.3920795089
  O         2.9592494055       11.5824847261        6.1511805936
  O         2.9534726780        4.9157352854       12.9829368187
  O         5.7229563339        6.2288858586       18.6578733208
  O         2.0748978869       17.1881961369        4.8322025618
  O        17.5528355050       20.3603029691       17.1468176885
  O         2.6418509512       14.1940120089       16.1560378966
  O        -0.7183042414       18.7795643134       18.8562324168
  O         1.6951573930        4.7660711990        6.3402194968
  O         3.8220561923       20.1406656459        4.2686127886
  O        15.1332118718       17.8217196372        4.2776918693
  O         9.4774510832        4.4916409260        2.0732620728
  O        12.3100415462       18.1667522405       19.8304848831
  O        14.0977775225       16.8156481151        1.9015435998
  O        16.8745712707       13.0315694206       17.2397670464
  O        14.0111365006        6.5413320934        4.3613116330
  O        17.4900529290        9.9019184204       10.4909322802
  O         4.7676267983        8.2675214246       17.2939734630
  O         1.1700625946        5.1378630560       19.5850517896
  O         0.3759481409       12.4125232251        3.6821426453
  O        18.7444280150        6.5497653164        9.7388574538
  O        14.9308662496       18.8460608539       19.7562487499
  O         1.8201844305       10.4876989089       15.8428043673
  O        -0.2425085049        2.9323536681       16.1045185399
  O        14.2583801129       19.1680931700        9.3477311241
  O         5.9421617619       11.4004300330        1.2401440292
  O         8.6823378350       18.3442887776        3.3438872849
  O        15.3469696696        3.7677112512        7.7203686472
  O         3.1499590004        6.6301141543       18.6030406858
  O         0.7097771237       10.0434573340        6.1093138876
  O        12.5219443614        1.7675408557        4.7410066004
  O        18.6728180056       17.6622963663        7.8254205857
  O         9.4544642897       17.9095076276       17.9152514677
  O        16.7221055623       20.0151358989        3.8488365384
  O        18.3846233975        4.1283859102        8.4088001271
  O        18.7110442112       13.2812442877       11.0035075641
  O         3.8374925915        5.2049098631       15.6149611346
  O         4.6742715299       17.2178122247       14.1020236655
  O        15.6026483691       10.4900831672       17.0925336200
  O        16.2859859608       15.6976814327        3.1010771231
  O        16.2211634734        1.4302074263       14.3481508942
  O        15.9715936582        4.1105508000       13.9922689055
  O         5.9306394283        0.9675931210        8.0440033960
  O         2.1234391970       17.7576905080       14.7013575394
  O         7.6432887620       17.3387912861       19.8026853370
  O         7.7847442575        7.9746945981       18.9335649695
  O        13.4939993282       18.2560845947       16.5536705835
  O         2.0886558744        2.2995672883        5.2971941082
  O        16.6135057306        3.4045717894       16.2883350158
  O        14.0492975784        3.8830153698        4.8505861397
  O        -0.7797510760       16.7839347072       12.8944146156
  O        18.0335441525        8.9830530482       20.1774731235
  O         0.5826217420       16.0387396957        9.4785987441
  O         6.4434474399        2.7918782116       17.9901708377
  O         6.6691441654       17.2833315277       15.8095606218
  O        17.3465335280       17.6881792283       16.7502446847
  O         4.7098115053        2.7121632164        5.9685909962
  O        15.9909396292        1.5084014839       11.6200627457
  O         2.8432298610        6.7918164248        3.9760086945
  O        18.0041682217       20.9051914592        8.5456278755
  O         0.2491432260       18.7385152551       16.2089620284
  O        15.9957152874        8.5763286773        2.5666934430
  O         1.8572779864        5.5524166379       10.1245170290
  O         1.5403110139       20.0256814953       19.5214036518
  O         0.7463364519       12.4123895717        7.3393045585
  O         6.7917944325        4.5614959742        1.9666312895
  O         2.9191264189       16.2158762299       12.4218967225
  O         3.6720046398       20.2318001550        1.5736175523
  O        11.3044059235        3.5177121542        0.5790694549
  O         3.8145996491       20.0395858802       18.3174672194
  O        16.6821338584        5.9895792161        8.3551023264
  O         2.8040570375       14.5336380012        4.6788542215
  O        12.6040471022        9.2270609796        2.6168092705
  O        13.1568442813        5.4774594889       17.3657739641
  O         8.3448166399       14.8500198968       19.1799200879
  O         6.0772230188        9.3657409296        4.2273661777
  O         7.7771030093       19.8474133600       18.8778111968
  O         8.2331850702        5.3814748271       -0.1578618682
  O        14.7302708181       19.0155390299       13.0299264599
  O         1.1170564650        3.3633291518        2.1484370217
  O        18.8233538725       15.7065766969        6.1399280715
  O         8.2638891829        1.3562049247       14.9435358163
  O         8.8702119452       10.5928703137        5.4226910722
  O        17.2124408371       12.6366049359        4.4667575590
  O        18.0328283779        6.6443287952       17.1241161772
  O        18.8836137242        8.8988159878       16.2919074350
  O        14.1943268648        2.6708093403       15.5019406020
  O         4.3946947379       18.9588864404       16.1926079129
  O         0.4424424290        2.5214869266       10.1515249131
  O        13.8595317612       15.4536770251        4.2958641586
  O        17.6826186624       17.9582540401        5.3564771082
  O        15.9726883185        5.6246403491        5.8560003992
  O        10.2518135527        2.0356632277       22.1912131556
  O         5.1000695271        2.8371089843        2.9566930622
  O         1.1872180580        6.7960337990       16.0034498288
  O        18.5965482733       11.3878746594       15.9644107702
  O         4.6893533541       13.6439786434        0.3962567316
 Na        13.5629677630       15.0945202687        6.4734384344
 Na        -0.0800503622       18.9258068607       13.8075940458
 Na        14.8689182715        4.1846861577       17.8982315422
 Na        14.1216409379       17.8566177332        7.4250285870
 Na         4.0278230609       13.4824939662       17.7526589234
 Na        13.4469468926       19.3751414984        3.6437203908
 Na         4.9910210239        3.8703680069       19.4277712665
 Na         2.4614762967       18.5143589941        2.8655020207
 Na         6.8034840227       16.3220803653       17.8604449700
 Na        19.0942176263       21.5369635011        3.3017069881
 Na        19.3958100311       17.0265163933        3.7913985749
 Na         3.4020857139       15.8553077570       19.8830462246
 Na        14.5248424777        5.2625834137       14.9706231360
 Na         2.1302924140       20.3743468339       10.5508896100
 Na        11.7012118750       18.8158453561       17.5737753149
 Na         7.0982312464       16.4405041105       13.4223414179
 Na        13.5085487407        3.5505778129       20.6051886871
 Na         5.1509879678        0.0443078835       11.5009287295
 Na        19.9495308631       13.8697217607        5.2980196757
 Na        11.6695561827       20.1876875720        1.3460151746
 Na        17.3620710883       14.2708031020       12.5570209186
 Na         2.1499089262        9.9603497361        1.1435521459
 Na         4.5008754120       10.7650864542        9.6020924625
 Na        12.2291659770        3.5039525027       14.7425511866
 Na        12.8209583757        4.0502889053        7.9748762513
 Na        13.7442349479        8.7758299801        4.5019827606
 Na         1.2573830839        6.3322291705       13.7753967591
 Na         2.4791761020       12.3738318925       14.9339432329
 Na         4.1788724998       17.9912701484        5.1870464339
 Na        18.3686127025        5.6690094590       19.1228194832
 Na        11.9853439414       15.5570829130        1.5960215483
 Na         1.7786391523       15.8745838870        6.9384384246
 Na         8.1077372144       20.4164512449        2.9060434249
 Na        15.4622065322        2.4235054641        3.3905407621
 Na        18.7628838612       11.9145396701       12.6585635586
 Na        10.1717746855       15.7443611815       18.4308540480
 Na        16.8958462790       18.4815587951       21.0430618447
 Na        12.7644896258       19.6393777302       14.6416552332
 Na         2.5958710567       17.6446220418       10.3874342183
 Na        14.8249020250       17.0277306712       14.1453857452
 Na        13.1930384985       14.6434090189       11.8474908643
 Na        18.2679380452        8.5494165775       12.1728552704
 Na         4.7845835831        9.6853729978        2.3593166442
 Na        15.6653699536        5.5016596753       12.2520634689
 Na        10.4433934642       10.1824654677        3.7518472468
 Na         6.6843956869        8.3512991766       16.0495465705
 Na         5.8479727721       18.8222365018        0.5695979221
 Na         7.0082777162       12.9777636461        0.2166934351
 Na        16.4044805587        8.0655221816        9.0942538774
 Na        11.3094968411       16.0992513681        4.3829453051
 Na        16.4685361054       18.8991348736        8.4349424973
 Na         4.9746444910       14.1834445329        2.8180240748
 Na        16.9400263649        2.1763539273        6.4022410398
 Na         8.7487160447       18.3164543891       15.8177567196
 Na         6.3147739354       17.3161461789        3.1661030580
 Na         4.5231678626        6.4766720844        2.4047376463
 Na        18.1472602007        5.1669071989        6.4512018278
 Na        18.1875863777       11.4980509264        6.2276300167
 Na        17.2296102659        7.5224748806        4.0261640791
 Na         2.3795661012        4.1048680657        8.5153670577
 Na        13.2621621875       14.1794292902       17.9157579546
 Na        10.0725137558        8.6166105137       17.9015965313
 Na         3.2244210071        4.5873249389        3.9088601457
 Na         1.0505918620        7.7130763279        6.2475445001
 Na        18.7941032315       14.3201609740        8.3455165135
 Na         1.6230913065       13.5134859071        1.9252483764
 Na         7.3098815506       11.0607425744        3.0965668798
 Na        19.4163165000        9.8493171985        3.8590952437
 Na         0.7662111271       15.2266711017       11.8678023541
 Na        11.7851494220       19.0980403907        9.0599483122
 Na        16.5824702693        8.3550727693       17.2425950754
 Na         1.5537250256        3.7967830621       11.7135753484
 Na        16.4099963667       14.6076747236        5.2286525265
 Na         9.2829813079        4.2267504498        4.6331431217
 Na        -0.4917141091       13.5248597785       19.1553085907
 Na         5.4123403686        3.5143685568       12.1467990788
 Na        10.3627432506        9.7409814757       10.5432924960
 Na        10.5398971019       19.8923956519        4.4504435559
 Na        19.9926104121       19.5769035019        7.1798732771
 Na        16.0550015029       15.5295821399        9.3564944803
 Na        15.9753150261        2.7517038719        9.5895490401
 Na         3.8261828469        5.8380242083        5.9870416370
 Na        16.3149459083       15.9999335530       17.9944235200
 Na        10.7837162587       12.0291832097       19.8477799632
 Na         5.4494177775        1.9463088992       16.0054385199
 Na        12.2516112796        6.4352934090        6.1050634473
 Na         8.6309233103        3.0380470144       12.6028154326
 Na        11.9845311230       22.0956749496       17.8813949301
 Na         6.9847739152       14.4774979856        7.7568870811
 Na        10.7688928858        5.6089173228       19.2538680239
 Na        12.4212700284        6.7860000355        2.8626340631
 Na         6.0712267332       17.7508218311        8.7397206649
 Na         4.1938227193       14.8639523907       14.7921246271
 Na         1.5113607550       11.2707878922       18.0388798637
 Na        13.1303436652       12.8371697696        3.6762459219
 Na        13.6157484211        1.2530607932        6.9967949349
 Na        10.5523592869        2.1323981521        7.1137742492
 Na        -1.1323700909       20.2060566136       10.8295925211
 Na        17.6356287383        3.3701886365       12.7200397958
 Na        17.8649595488        5.4490673230       15.2765263832
 Na         9.7725183222       10.8920867446       14.6580387538
 Na        -1.2309532952       16.0769168914       14.9953386958
 Na         2.8455881123        1.0641042814       14.2629442890
 Na        12.5393542276       12.3618069363        9.2161996675
 Na        19.7909500762        5.1351150811        3.5002163506
 Na        15.1822183897       13.7464307069       15.4726491253
 Na         0.3291860498       16.4644729028       20.2132898289
 Na        16.0507672890       10.7278059886        3.6326691627
 Na         3.8397615154        9.0467212081        5.1960617643
 Na         2.6200576013       11.9176069994        3.9602705427
 Na         2.0617933097        4.7026431089       17.0224437824
 Na        18.9508545697        9.4427563510        8.7440780215
 Na        16.5562569390       10.4954154819       14.9463203644
 Na         5.9832231455        4.8091391152       16.3440117484
 Na        13.6278165780        6.9935087445       19.1081065843
 Na         6.3299229351        9.7812695002       -0.3880023251
 Na         1.4584817544       12.6023877977        9.5755676809
 Na         9.1099529274        7.9081350216        1.4654579588
 Na         1.7782039750        9.3994225266       12.6033168052
 Na         5.6121939765        3.7087515649        8.3376194139
 Na        15.0032670354       19.9640321606       16.8282114853
 Na        13.7873583192       20.7817183456       10.9586204184
 Na         7.1500171763        7.9253056481       11.8610341780
 Na         4.2260999267       10.4482412112       16.5590705246
 Si         1.0206308106        3.3171276817        6.0455002078
 Si         8.1277583062        4.2870485665        1.1370018495
 Si         4.4826357150       12.0436753971        0.6811755801
 Si        17.8015506914       16.8051368210        6.5780883126
 Si        17.4586213089        2.5944509815       19.9331846258
 Si         1.7993966522        7.7576938752        3.2061454218
 Si        18.2614413177       12.6242945772        3.2424361461
 Si         3.5342230327        1.6742692194        5.6790504947
 Si         6.1943970715        3.9514620911        3.4222105281
 Si         9.5879946320        1.9729689530       15.8400962168
 Si        17.8785736832        2.6125982007       17.0023507134
 Si         9.8497943132       17.8045446045        2.4036891027
 Si        16.3190215733       18.8713894721        4.9574147920
 Si        14.4114676440       12.9827564594       20.2709215659
 Si        19.1648635682       17.4384703623        9.4275010419
 Si        10.7476999657        3.4042029960        2.1048512688
 Si         8.7550024677       18.5132915894       19.1453325978
 Si        12.3648265890        6.4888768202       16.4179970612
 Si        17.7047260170        5.3037530670        9.4919573020
 Si        11.6967330892        9.1750465136        1.1869592619
 Si        14.9125724643        5.3164187284        4.6002439960
 Si         3.1897806826       17.5195930345       13.3402069877
 Si        18.2063298345       12.9795252730       16.2124092853
 Si         2.9728299351       20.7215203387       19.5454600748
 Si        13.7687161516       17.6370156228       19.8523222981
 Si        14.6089750442       20.4726958962       19.8346418972
 Si        13.5305282544       16.6893072373       16.9243216156
 Si        18.2354710000       18.8785939501       17.2611284521
 Si         4.7541606008       20.6213339932        2.9287575202
 Si         0.9006548254        6.8368130041       10.2204299713
 Si         8.1968601556       15.8185146902        1.0099284288
 Si         3.8190010024       18.5300724789       17.6427700321
 Si        18.2401613739       10.7000546204       20.1989725660
 Si         7.7904325462        2.0504804705       18.5091049138
 Si        19.4485648647        7.4084559482       16.9538119362
 Si        16.8098907341       14.9297896457        1.6724712180
 Si         2.7684255969        8.7413345855        8.5627543642
 Si        16.1136886877       11.6658076251       18.0091401455
 Si        19.1081595533        2.6610648921        8.7682727144
 Si         0.3401423360       10.1040765351       15.4481961496
 Si        16.0215053123       19.9576458421       12.8675847095
 Si        15.3724913572        5.3141626665        7.4774725740
 Si         3.4012105072        4.2007838750       14.4296247291
 Si        15.6623865152        2.8802106746       14.9534305375
 Si         0.1126870433       19.5308516018       20.0943579522
 Si         1.4250888372       14.7193754845       16.9730414319
 Si         1.7913141353        6.6855191130       19.4808592506
 Si         7.3484337766        6.5578081813       18.4477695883
 Si         4.3551546438        0.9360227915        8.4590467506
 Si        16.2853641636        5.1668029591        1.7452563019
 Si        12.3449878547        3.3886983583        4.6097799768
 Si         2.6902073460       15.9147949493        3.8835774803
 Si         0.5434224339        3.1299293401       14.6610600088
 Si         4.6346927642        7.4794159700       18.7500470608
 Si        17.3762332683       17.3109441478       11.9744143642
 Si         5.5192339410       18.2036173108       15.2485699622
 Si         1.6445255165       11.1723910125        6.8894640399
 Si        14.8475575165       16.4099044803        3.4069856300
 Si         7.3343665186       19.9847372254       13.6639680762
 Si         2.1489900136        3.9997585032        1.1333340424
 Si         1.3695071983       17.6416065368       16.1373098781
 Si        16.7294979437        8.0957837934        1.2006366567
 Se         4.3471713667        8.6589387174       13.5760451390
 Se         6.6092576863        6.0454516676        6.8435499931
 Se         5.8762166184        5.8073574165       10.5711519124
 Se         8.2831256058        5.8744760664       13.2911200494
 Se         8.4752071139        3.2661360933        9.5715897002
 Se        11.3087431645        1.4581420343       12.4375914976
 Se         2.8705855929       12.5594426060       11.9867040181
 Se         6.1718581733       12.9634964650        5.1936409341
 Se         7.1781308405       10.1056696126        8.6260868125
 Se         7.5042292871       10.8112086830       12.4189405982
 Se         9.7472402730        7.3756213229        4.3634069500
 Se        10.4514185713        7.5983337382        8.5840368390
 Se        11.2154547261        9.0453663470       13.2724441155
 Se         8.2556109444       10.7150357338       17.1103960207
 Se        12.5693107757        5.0198126291       11.2684505443
 Se        15.9074016156        7.9333313442       13.5602503047
 Se         6.5754880944       16.6093813447        5.9348155239
 Se         4.0223988378       14.9830974721        8.5492535063
 Se         6.9780961578       14.7549172935       10.9738875467
 Se        10.0903990015       13.5460850719        3.6606755410
 Se         9.7432681227       13.4437985057        8.2603729398
 Se        11.0034664225       12.6659873170       11.5051306666
 Se         8.4650384903       14.4656401059       15.0053620884
 Se        16.7447698659        9.1773773513        6.5200114679
 Se        12.4470058960       11.0827837995        6.1352013946
 Se        15.2669112017       12.3428264984       12.6057632586
 Se        12.6232765695       12.1126664959       15.7981502679
 Se        13.6080003661        9.6308391693        9.7397727956
 Se         8.6307201807       17.8249624934        9.8599009910
 Se        11.8470620548       17.0139100349       13.2056787718
 Se        11.1542633580       17.7850054195        6.6106176696
 Se        13.1145676744       15.8198686401        9.1952415311
 Se        15.8014621564       12.9866699452        7.9499551126
 Cd         5.5961629516        7.5065587954        8.6602396326
 Cd         8.7544608456        5.6233019306        8.4086377674
 Cd         3.6196210396        6.6954567638       11.6824195764
 Cd         3.4044372523        7.3392625630       15.8052095997
 Cd        11.0205381306        2.6953474940       10.2111148839
 Cd         8.1477478072        0.8097797105        8.6424579532
 Cd         3.9494682451       13.4778443623        6.3435818755
 Cd         6.6884857263       10.5375772760        6.1067531321
 Cd         5.1547215293       11.3927371550       13.2566487418
 Cd         6.9001705879       12.4136213961       15.7536626882
 Cd         7.0600359308        7.5619873640        4.6894772408
 Cd         9.9136284804        8.9846656764        6.6088538194
 Cd        10.8897056080        6.1976067275       13.0460827769
 Cd         9.2314243256        5.6182520307       15.6745311376
 Cd        13.0986037339        7.0787428647        9.7302175159
 Cd        13.4455365648        8.0942222124       14.1429453536
 Cd         7.8256774947       14.7204047962        4.4079287339
 Cd         4.3566149885       14.5003873593       11.1312599163
 Cd         8.7010388685       13.5137940826       12.6604310494
 Cd         6.7337805986       21.1858101642        5.8824713853
 Cd         9.7554672148       12.4341135065        6.0107077469
 Cd         7.6659358256       12.2766843613        9.9756545112
 Cd        11.1458528381       15.1923972430       15.0552156018
 Cd        14.4526696700        9.7986263142        1.2272700761
 Cd        14.7119849949       10.5249042671        7.3282215748
 Cd        12.6354727962       11.4895830938       13.1992071082
 Cd        13.2238386900        9.9891388329       17.1708782998
 Cd        15.5074544577        9.8805867952       11.5627696567
 Cd         8.6466519760       18.1468465891        5.8377614135
 Cd         9.8744612518       18.7108834446       11.9608304139
 Cd        14.3951422285       17.7568391992       11.0640236484
 Cd        10.4372017145       16.0102931142        8.6412635513
 Cd        17.3429520655       12.0041690342        9.8068100516
