438
 i =     7300, time =    14600.000, E =    -10932.3699955585
  O         4.1495049829       16.3097497419        3.3472311838
  O         3.5130116573        8.5079626578        9.9984869645
  O        14.0169420661        1.3004682757        1.7954152383
  O        12.0842439518       15.4857299669       16.9832854647
  O         1.6298742774        7.3616324871        1.4574415866
  O        15.7800299571       16.2412596830       12.1223364676
  O         4.1929394858       11.2037951901       18.6803022027
  O        17.6821073823       15.5160729429       19.9778216703
  O        15.4644482347       14.1814382998       20.4194288935
  O         1.5395358719       15.5561586461        2.7590906266
  O        11.5796132834        7.0813933601        0.6056982377
  O        17.8313725499       13.4937617369        2.1502338454
  O        10.7166944018        6.3859818417       16.7130685477
  O         1.2372916229       14.4492436847       18.8795485215
  O        18.0598530800        2.7845293933       18.4509271361
  O        12.0768381936        1.8222880144        8.7687964698
  O        13.6084560308        1.4299464821       18.4800029981
  O        17.1895290069        6.4671791660        1.7701064985
  O        10.8746649506        0.6434534521       15.9188063006
  O        15.4660231748       19.1482012408        6.2212342028
  O         4.9318803729        8.1146465659       20.2085468005
  O         3.2546016002       18.4823386022       12.5530589805
  O         1.0622167553        7.8891213345        9.0902416975
  O        16.0960565315       16.1784672567        7.2412391229
  O        17.5397899555        3.6978038478        1.5276892060
  O         7.5071014145        5.8752281508       16.6413963689
  O        16.0226749400        1.7471342208       19.6819283508
  O        -0.2230503358       18.1971934239        2.1101758689
  O        -0.3328551244        4.0670572300       13.7901015696
  O         2.2645920989       17.4376396862       17.6425134712
  O        11.7026111615        3.8990395088        3.1783060913
  O         0.7593330572        2.3771992048        7.6188068277
  O         4.4205827935        2.7357483255       14.1961218319
  O        16.9154393663        4.4485026712       10.7527424511
  O         5.5520413825        5.2395714680        4.0427415205
  O        11.4946881328        4.0043904631        5.8296966538
  O         4.1323509047       18.8457111457        9.4023137125
  O        14.5259471097       15.2798011161       15.9855457299
  O        17.0678515712       11.2723167149       19.4128726335
  O        15.2756879416        4.8538332305       19.9497436049
  O        18.9466558453        3.3175567829        5.2857948076
  O         3.1939144392        7.9906818592        7.3667512385
  O         4.5782316870       17.3187341607       18.9752428627
  O        13.4725247262        7.3029449024       16.4909943705
  O         1.9361481796        2.9835137898       14.7776330585
  O        15.8143034768        4.6490580539        3.2208936722
  O        14.5448346640       11.9093664150        2.0160779771
  O         9.7023090738       18.8840444791       20.2308124839
  O         5.9053205397       19.7361538443        2.6998488052
  O        17.0173828018       18.7853920780       12.5106165857
  O         4.8372507080       12.3376312640       15.2057191969
  O         0.5937189620       15.8090843849       16.5158905173
  O        11.4533714032       18.1775515394        2.8716347979
  O        17.9596161468       10.8561817322        2.5233801062
  O         9.7252419192       16.4353716368        1.8265520643
  O         0.2637156478        1.4578208562       13.4876464182
  O         7.3425278312        3.1855110449        4.0846743202
  O         0.6682862564       18.5251737477        9.8536314908
  O        18.3708783888       20.5842914685        1.2954457671
  O         3.4634893709        4.6171554899        1.2663434276
  O        17.6129782492       13.5364540232       14.9004829932
  O        -0.0727636084       13.4006248549       16.9032077257
  O        14.7237775485       12.2217987704       18.7701293182
  O         0.7727437045        7.3636635608       11.7885638820
  O         7.9617058521        2.5561154186       19.8075329033
  O         0.2790951631       10.9837232893       19.7473754620
  O         4.0193628763        2.1398622400        9.1796520151
  O        10.0405067469        3.1675247642       15.3076492625
  O         0.5623906609        7.2115779289       18.4542584428
  O        12.8417994819       13.4977787634       19.9938713803
  O         6.0216389524       19.2427414391       14.7136581347
  O         3.3937223702       12.1523738661        1.6078796373
  O        14.2475306860       16.2664737999       18.5252003660
  O         2.4877502651        2.6096443139       19.2271940119
  O        19.5437891842        9.9547986133       13.8445836866
  O         7.2494346239       15.2352121756        2.3672743007
  O         0.3670810159        7.3242495531        3.9290439842
  O        17.6574375336       17.1836772510       10.4063096728
  O         8.9653539806        2.1569639524       17.4732459306
  O        13.9625522958        5.8569083397        7.7348527622
  O         2.1953489891       10.3125873910        8.6318002552
  O         2.4315403832        9.0218686880        3.3284161931
  O         8.2124852772       18.3151746033       13.6463296053
  O         3.4175656251        0.4038725963        7.0104429951
  O        12.4061041074        5.6455273999       14.6060111695
  O        12.3813604363        9.8146442662       19.2653143309
  O        15.5094526443        8.0503117504       19.5251695427
  O        10.1784172402        9.5030250179        1.1048054646
  O         6.9343635350        1.2771338273       12.6248928162
  O         8.6541050472       20.2027791543        6.2620366143
  O         2.8404999581       11.2693041427        6.1754380541
  O         2.8675399221        4.7586606282       13.0652333800
  O         5.6855738117        6.0101415079       18.4909386399
  O         2.0241174476       17.0746679303        4.8969796969
  O        17.5801058601       20.0371860646       16.8632647413
  O         2.4423384753       14.0528524057       16.3150295973
  O        -0.9222761336       18.5908232730       18.9500295301
  O         1.7738706375        4.5854258192        6.5617099320
  O         3.6576246882       19.9795531717        4.2542704592
  O        15.3577973618       17.8727307735        3.8050023842
  O         9.2368775450        4.4045861186        2.1075829896
  O        12.4696597993       17.7979518458       19.6291006625
  O        14.3220187426       16.6302829181        1.7570891697
  O        16.7731276607       12.6711986700       17.2482235458
  O        13.6643665230        6.2710980746        4.4352864775
  O        17.2518233405        9.4637863357       10.4194341839
  O         4.8826013473        8.3189355687       17.3474305117
  O         1.1327350503        5.0326995702       19.4399685272
  O         0.4333280476       12.4327010828        3.6104388020
  O        18.5161082502        6.3592749901        9.7468188273
  O        15.0472781740       18.7161513759       19.5766078872
  O         1.7809551330       10.4747360812       16.0607022179
  O        -0.2626922762        2.6898840476       16.0558300770
  O        14.1797476844       18.7548254246        9.4146006352
  O         6.0117104081       11.1805014157        1.1987926082
  O         8.7814502648       18.2577605795        3.4283169775
  O        15.1320535476        3.3433744780        7.6426170566
  O         3.1223078750        6.7641321441       18.5447414071
  O         0.5272026825        9.8734788726        6.5361203185
  O        12.4674811758        1.5963424096        4.9491650510
  O        18.4912263970       17.6288647534        7.8544328400
  O         9.4487052568       17.6587942122       17.8869895010
  O        16.8540557355       19.9417343396        4.1032140831
  O        18.4419134724        4.0130191976        8.6526501441
  O        18.6220984136       13.0725655204       11.0740099357
  O         3.6434032261        4.8891791611       15.6102448428
  O         4.5129058163       16.8900501335       14.4520008004
  O        15.6647573067       10.2111160779       17.2922633714
  O        16.5204665157       15.7182922277        2.9602042101
  O        16.3694758879        1.2429643143       14.1853008183
  O        15.5972251973        3.9213442426       14.1123767649
  O         5.9676206584        0.7515213093        7.8897343291
  O         2.0420981393       17.4323404436       14.7988783329
  O         7.6368774204       17.2355129789       19.9513127433
  O         7.8233271585        7.6080729704       18.7908642956
  O        13.6062470802       17.7307145870       16.3135422420
  O         2.0416147782        2.2355116404        5.2886608084
  O        16.3242382660        2.7907541791       16.4043708387
  O        13.9683108799        3.6415075730        4.5811767997
  O        -1.1327167515       16.5310959545       12.9845934704
  O        17.8820529594        8.8545314263       20.1963572360
  O         0.4621192250       15.8699868602        9.5539497912
  O         6.2598909833        2.3213830014       17.7695838508
  O         6.5355963358       16.8585718166       16.0336759346
  O        17.0909008186       17.3977959129       16.8391679715
  O         4.5882427481        2.5457986558        5.9674335470
  O        15.6494462585        1.6772704780       11.7479293134
  O         2.8835088025        6.4020137791        3.7491903908
  O        17.9218601143       20.7924180961        8.6114624937
  O         0.1687653417       18.4135902275       16.3426140299
  O        16.1313642731        8.7741065382        2.7997432848
  O         1.7186277084        5.5721475881       10.1309673542
  O         1.3974622749       19.6985280701       19.9956494581
  O         0.6998518592       12.2855672710        7.5692892464
  O         6.5908298776        4.4011740748        1.7427440050
  O         2.8309639586       15.8706917315       12.5202793988
  O         3.5857634554       20.3419288599        1.6903440982
  O        11.4282522790        3.3252825617        0.6629739241
  O         3.5646636623       19.7244039854       18.5364195046
  O        16.4817213954        5.7058267566        8.2498287823
  O         2.7410489530       14.4292819133        4.9346746622
  O        12.5341824811        8.7530835806        2.4734120570
  O        12.8290520287        4.7913123235       17.2210807932
  O         8.5967124889       14.8018608376       19.3542631502
  O         6.3363179700        9.2477014497        4.5014322451
  O         7.6080969063       19.5730190004       18.7377413215
  O         8.1190531552        5.0020226579       -0.3170484018
  O        14.5245693033       18.8753383427       13.1654562307
  O         1.2892400811        3.2627043696        2.2169008004
  O        18.5834822174       15.4299464101        6.4347885307
  O         8.2099893788        1.1828407757       15.0162154453
  O         9.3572665370       10.4534182029        5.7675446226
  O        17.2463443040       12.3702650012        4.5548392860
  O        17.9700539223        6.5058031513       16.9389374635
  O        19.0748480083        8.7262481014       16.3883430663
  O        14.0107977506        1.9171922449       15.2935842701
  O         4.4887905140       18.6593091044       16.5391799714
  O         0.4216359329        2.3305848239       10.3417811108
  O        14.1849652266       15.3425242165        4.1974981438
  O        17.5723159871       17.6851010288        5.3892214322
  O        15.7615381591        5.2075139649        5.7453780574
  O        10.1217794903        1.8077864635       21.9426910355
  O         4.7447251464        2.8996327326        3.0248468851
  O         1.2523452399        6.4695066160       15.9646040066
  O        18.4229896461       11.1222100504       15.7753038333
  O         5.1952499493       13.5589703334        0.1822952923
 Na        14.1464677567       14.2120931627        6.5924835303
 Na        -0.7864999758       18.9901852165       14.2146992790
 Na        14.7458643919        3.3005379888       17.9766715322
 Na        14.2699364734       17.6244007984        7.4800819578
 Na         4.2653969811       13.0346508365       17.4946761406
 Na        13.1730795980       19.3497484952        3.6818613183
 Na         5.0959555890        3.9693965771       19.2494084810
 Na         2.0220477996       18.4603034074        2.9930950953
 Na         6.4155815442       15.8126943433       18.3784289359
 Na        18.9825292646       21.0659887982        3.5206389665
 Na        19.1607241893       16.8194693687        3.8504462984
 Na         3.2821323186       15.1341489172       19.8908183059
 Na        14.7574613799        5.6017091863       15.6274614752
 Na         2.3354488094       20.3666700936       10.3631745907
 Na        11.6117316280       18.3323136014       17.4025287503
 Na         7.2161535741       16.2571489979       13.8416359519
 Na        13.3767084044        3.4858646081       20.9435626689
 Na         5.2549725547       -0.0563961505       11.5561028581
 Na        19.9536991197       13.7930478713        5.4446315464
 Na        11.5954447343       19.8356597167        0.9803116540
 Na        16.8466055209       14.3425164078       12.6443766188
 Na         2.4046347331        9.9971669733        1.1756348484
 Na         4.3736041481       10.7149068092        9.6886127912
 Na        12.3225965061        3.4099397108       14.7441003605
 Na        12.6237336957        4.0458137342        8.1149790752
 Na        13.9600855579        8.3981100978        4.6370837392
 Na         1.0274385274        6.0820433197       13.7900056700
 Na         2.3901380282       12.3070136403       14.9272816044
 Na         4.1081266962       17.9073777786        5.2353811772
 Na        18.2385921498        5.4527865246       18.8417829531
 Na        11.7152611749       15.7084412470        0.6182179731
 Na         1.6365072366       15.9181234659        7.0291809092
 Na         8.0870155854       20.5259702787        2.7455951526
 Na        15.3645517406        2.0179316498        3.5568787234
 Na        18.6459639768       11.9838840905       13.0628144171
 Na         9.7464424427       15.1591983528       17.6780395816
 Na        16.7497034505       18.2420734845       21.2346636753
 Na        12.7046337815       19.5216804974       14.5403587610
 Na         2.5273446386       17.1169735693       10.4290407357
 Na        14.7403571663       16.8494242085       14.3235333272
 Na        13.5134390389       14.1275038459       11.8616280403
 Na        18.2973727392        8.7019877259       12.3371525006
 Na         4.8804076551        9.5012076481        2.5996690275
 Na        14.9965075621        4.6810390796       12.1081764574
 Na        10.6445699212        9.8728121758        3.6201250252
 Na         6.8994053115        7.8256129547       15.5572699291
 Na         5.7532312730       18.9316211723        0.4730650083
 Na         7.5448011389       12.8615221141        0.3848352959
 Na        16.2316764936        7.8790136705        9.0900045491
 Na        11.8582754383       16.1481838350        4.1101060304
 Na        16.2878730220       19.0593756340        8.6134178977
 Na         5.1133285351       14.3716140045        2.4597093663
 Na        16.9668025612        2.2282410296        6.5127739456
 Na         8.4694541964       18.3235430690       16.0806787993
 Na         6.3877043974       17.4282123746        3.0361859790
 Na         4.6212770759        6.1971951948        2.2146368676
 Na        18.3217063555        5.3153943520        6.2590597672
 Na        17.8209737758       11.2553872085        6.3864175936
 Na        17.5939820072        8.0148748871        4.1606510665
 Na         2.6643530803        3.9466010448        8.9669088026
 Na        13.2048358795       13.6222229836       17.6409846952
 Na        10.0233946642        8.3474161050       17.7463298969
 Na         3.0224151044        4.1735164663        3.6544277266
 Na         1.2973798809        7.5347957428        6.2137489192
 Na        18.4401224062       14.2479012587        8.4967350332
 Na         1.4773022715       13.2235215385        1.7155126948
 Na         7.3127178723       10.8435690824        3.1784239171
 Na        20.1856709177       10.0151377901        4.3818758781
 Na         0.4696617027       15.2761851350       11.8353377557
 Na        11.9392915676       18.9129402106        8.8609811293
 Na        16.9700690818        8.5566536225       17.8332303984
 Na         1.1828701523        3.9793632056       11.6935478021
 Na        16.6233115476       14.4105369389        5.3328441826
 Na         9.1148621020        4.3074647374        4.8979312727
 Na        -0.8497888365       13.3739260675       19.2394120640
 Na         5.6478458947        3.2866360658       12.3074549964
 Na        10.6446615219        9.2159245915       10.6837922593
 Na        10.5419454915       19.8089434138        4.3529866701
 Na        20.1823714921       19.3816699532        7.5466637903
 Na        15.7927079969       15.5524444028        9.4815664121
 Na        15.8675962944        2.6358935586        9.5985467508
 Na         3.6586993631        5.6791054814        6.0720406027
 Na        16.4558420203       15.6612814153       18.0829667222
 Na        11.0609149587       11.5869684814       19.5659815169
 Na         4.9673152407        1.5168798693       16.0471392230
 Na        12.1044342647        6.1262050411        6.0541726694
 Na         8.9488682547        2.7703461642       13.0655270991
 Na        11.7876764381       21.6478071955       17.6375342196
 Na         6.9322348785       14.4718990246        7.8303831037
 Na        10.6256805168        5.0517539611       18.7874818277
 Na        12.0512703829        6.3590933152        2.8090737828
 Na         5.3161894089       17.4246212097        8.2950508368
 Na         4.0325117716       14.5614908329       14.4837279453
 Na         1.5368031328       11.3653211889       18.1646058142
 Na        13.0001006766       13.2278633502        3.2994189455
 Na        13.8198150000        1.4352749997        7.0737939329
 Na        10.5774212899        1.9659087751        6.9737985200
 Na        -0.7568622924       19.8187622898       11.2435198288
 Na        17.3657657943        3.1646388969       12.4098278324
 Na        17.5460852409        4.9192681022       15.2649987384
 Na         9.7621710109       11.2949862221       14.8356550311
 Na        -1.3432092045       15.9277017519       15.0871734922
 Na         2.4281255802        0.8058756849       13.6112309774
 Na        12.3790427839       12.3721074035        9.1415472976
 Na        19.2806213658        4.9689471092        2.9541569918
 Na        15.2874826691       13.2719493888       15.2229667142
 Na         0.4888775187       16.1684406589       20.2288831819
 Na        15.6242443789       11.0223906436        3.7892830592
 Na         4.1303960427        9.7048591846        5.5860160816
 Na         3.0358716795       12.3680334434        3.8952730275
 Na         1.8852028079        4.0384199315       17.1616827437
 Na        18.7737943366        9.2262212271        8.5503141683
 Na        16.4053909656        9.8859422862       14.9450361666
 Na         5.8635511289        4.4013469457       15.7970631127
 Na        13.9308488497        6.4804421975       19.0014461428
 Na         6.4823582928        9.7488642521       -0.4567062885
 Na         1.2781492976       12.9768560926        9.6988440876
 Na         8.9498425516        7.6082457447        1.2680269643
 Na         1.8986286650        9.1620397699       12.2959160597
 Na         5.5616256727        3.4756429267        8.2212752669
 Na        15.2451236997       19.3198860563       16.7245033631
 Na        13.4200012267       20.5154032917       10.6985864082
 Na         6.9355598906        7.9866585895       11.6988682101
 Na         4.1053796318       10.2896200715       16.4970742614
 Si         1.0341594914        3.2324066688        6.1521267248
 Si         8.0323470072        4.0705871378        1.0260514627
 Si         4.6634780143       12.0084380913        0.6423220961
 Si        17.5814316531       16.6572804226        6.7236502320
 Si        17.4935957959        2.3472736775       19.9507793579
 Si         1.8429673317        7.5238418740        3.1766255816
 Si        18.2534859358       12.3591794596        3.2957871959
 Si         3.4486168065        1.4538326773        5.6851146335
 Si         6.0950320805        3.9267675300        3.3398459148
 Si         9.6654769301        1.7199327245       15.9093270158
 Si        17.8125598098        2.2415435910       16.8542176014
 Si         9.9510288563       18.0426686586        2.3504924886
 Si        16.3357603022       18.6958639976        4.9620395810
 Si        14.3672052486       12.9887587712       20.1673120745
 Si        19.1188338929       17.2967293428        9.4647401184
 Si        10.5746616085        3.2531611083        2.0050114538
 Si         8.6385919190       18.2662211161       19.1193841336
 Si        12.2777517830        6.0831913241       16.2862206602
 Si        17.5608524427        5.0737626689        9.4483357163
 Si        11.5941223003        8.7456074847        1.0600899017
 Si        14.7392334727        5.0749526754        4.5037489140
 Si         3.1318194360       17.1599682977       13.4568920552
 Si        18.0595526255       12.6843981447       16.1754251368
 Si         2.7701833763       20.4983393028       19.6632033468
 Si        14.0019647249       17.4512694202       19.7121619509
 Si        14.5376390744       20.3141589757       19.7634245134
 Si        13.5890985339       16.2560403169       16.9131138337
 Si        18.1325069796       18.5148729265       17.2828546107
 Si         4.5890445071       20.6255888425        2.9429077379
 Si         0.7151057728        6.7554869125       10.3093997773
 Si         8.3655105263       15.7780351186        1.2158639130
 Si         3.7358537574       18.1445023250       17.8987097313
 Si        18.2177536556       10.4732090814       20.3181788475
 Si         7.6773945531        1.8354776625       18.3595936570
 Si        19.4938290750        7.1921763423       16.8347060326
 Si        16.8922478078       14.7193670629        1.6959493672
 Si         2.5373347301        8.6138593603        8.7476512692
 Si        16.0323894573       11.4695759167       18.1956756944
 Si        19.1137769438        2.4610740637        8.8986708624
 Si         0.3442860906       10.0397185551       15.4894377001
 Si        15.7541572836       19.8725131340       12.8099141695
 Si        15.2715209734        4.9598340924        7.4202041646
 Si         3.3083433623        3.8806688271       14.3097438098
 Si        15.4657318852        2.5045059882       14.9006171035
 Si        -0.1524333805       19.1712237565       20.2641617136
 Si         1.2121358105       14.3969172755       17.2800453523
 Si         1.7329971093        6.5894086819       19.4091435080
 Si         7.3549324922        6.1928013328       18.2008726417
 Si         4.4994378762        0.7626823464        8.5160683899
 Si        16.3899784340        4.9147280376        1.7464526432
 Si        12.3267891575        3.1742641232        4.7174174813
 Si         2.6863781929       15.8207791827        3.9535918201
 Si         0.3367478692        2.7592704648       14.4145727370
 Si         4.7084138818        7.4000983552       18.7627992208
 Si        17.1644992622       17.1736411482       12.0027228744
 Si         5.4452347571       17.8724079563       15.4744729108
 Si         1.5616861603       10.9581347894        7.1494217203
 Si        15.0156712817       16.3652796811        3.2414278878
 Si         7.3956648555       19.7161690431       13.8414746308
 Si         2.0419007196        3.9254624138        1.0006696098
 Si         1.3302692822       17.2826672975       16.2589432055
 Si        16.5893013838        8.0400935747        1.4211933295
 Se         4.3230979475        8.3293585048       13.6021492103
 Se         6.4052402645        5.8415810910        6.9646215759
 Se         5.7628615762        5.5760665396       10.6747290063
 Se         8.2065118192        5.6287826031       13.0486445614
 Se         8.2294124551        2.9611752993        9.6159522993
 Se        11.0878992565        1.1649989591       12.3299458958
 Se         3.1288775172       12.0550640236       11.9213315676
 Se         6.0428049781       12.6978725186        5.0054434702
 Se         6.8146289654        9.7744922941        8.7687387022
 Se         7.6879321011       10.6683982324       12.7624685369
 Se         9.5710928349        7.1703807727        4.4333889595
 Se        10.1977731416        7.2375981512        8.9158032801
 Se        10.8852679907        8.6313101788       13.5982201563
 Se         8.4480884459       11.2849165813       17.3550879628
 Se        12.3889408488        4.7073618009       11.0654820612
 Se        15.7303174028        7.6023328665       13.3749827461
 Se         6.5953007132       16.4433601336        5.8396171370
 Se         3.7064061303       14.8978539771        8.6376715836
 Se         7.1060709067       14.3393650785       11.0139944786
 Se        10.0767525526       13.3170651712        3.5016924687
 Se         9.5823265717       13.4753268031        8.2658377820
 Se        11.0399997495       12.0495410570       11.4384413137
 Se         8.8966570631       14.2781693872       14.9272156347
 Se        16.3249399289        8.7831941031        6.3665021593
 Se        12.9627586099       11.7671614694        5.7920907571
 Se        15.3925468523       11.8444263767       12.9795975847
 Se        12.5064978806       11.7309680195       15.8116558389
 Se        13.3133156284        9.2684224001        9.6467439355
 Se         8.7535424293       17.5368918412        9.6611468118
 Se        11.6592622222       16.3261212165       12.4790566086
 Se        11.2752163424       17.5730405402        6.3942860300
 Se        13.0922230503       15.4368514679        9.2414774393
 Se        15.8689212099       12.6968810411        8.3109278708
 Cd         5.1276646431        7.3671024733        8.6600610598
 Cd         8.2286782303        5.4059152833        8.9735448757
 Cd         3.5260279567        6.5989772903       11.8369552104
 Cd         3.3949107729        7.0791210755       15.9734709953
 Cd        10.7314244577        2.5624357295       10.1572496467
 Cd         8.0911198598        0.4731303001        8.4930753539
 Cd         3.9591710649       13.3589737222        6.5985457986
 Cd         7.1598880586       10.5550752745        6.1516337484
 Cd         5.2808385907       11.1252646281       13.3813237449
 Cd         6.9043300766       12.4767363937       15.6292627148
 Cd         7.0004540291        7.2448277901        4.7064842115
 Cd         9.6744665094        8.6191034800        6.7054675202
 Cd        10.6937149801        5.9288109859       12.8043766300
 Cd         9.3821275590        5.3353601451       15.4918152264
 Cd        12.8007280674        6.7644559313        9.4986322046
 Cd        13.2860876750        7.5435829759       13.8317823844
 Cd         7.9397427666       14.5460224964        4.3969529266
 Cd         4.5300872000       14.2251882103       11.1887008881
 Cd         9.2430375756       13.8031501052       12.4810077924
 Cd         6.7907014632       21.1227485073        5.7169666994
 Cd        10.3912819209       12.3605961981        5.9344070192
 Cd         7.9916866164       11.7350608952       10.3337231441
 Cd        11.3888483684       15.4067788672       14.9516120952
 Cd        14.3445285569        9.7348968576        1.2864639214
 Cd        14.4885355956       10.4325267977        7.4546245736
 Cd        12.6991484461       10.9309430973       13.3577557738
 Cd        13.3555808470        9.5140934556       17.2027209618
 Cd        15.2421293987        9.6669304896       11.4378454379
 Cd         8.6955428924       17.8254307057        5.7304670166
 Cd         9.6489727324       18.2882742592       12.0070571685
 Cd        13.6988562394       17.7061039631       11.1833763996
 Cd        10.6090360736       15.8333290654        8.2913613515
 Cd        17.3316121430       11.6291898443       10.4121606074
