438
 i =     8500, time =    17000.000, E =    -10932.3679643205
  O         4.1365633280       16.4320229507        3.4410451739
  O         3.6036841242        8.5922536087       10.1828701178
  O        14.3474738967        1.2312818516        1.8756674989
  O        12.3340399779       15.6515241954       17.0826708878
  O         1.9150047582        7.4673248278        1.3800061785
  O        15.6916408117       16.4584369171       11.7279499475
  O         3.4986556690       11.4667199670       18.7956965815
  O        17.1867514237       15.4682345681       20.1606136327
  O        15.2262791162       13.9137175231       21.3191724541
  O         1.6972131122       15.8319571628        2.6116841305
  O        11.1504511165        7.2132351818        0.6929106448
  O        17.9432621350       13.5938804772        2.3061980464
  O        10.7210891293        6.6324665055       16.7274477479
  O         0.8616218675       14.7447685133       18.7171281537
  O        18.0453002600        3.1322121076       18.3746207431
  O        12.1249549564        1.9851120497        8.6753098900
  O        13.1768056689        1.2781614683       18.8547684746
  O        17.1055636611        6.3586855679        1.3103776676
  O        10.8688681173        1.0220137471       16.1999733234
  O        15.5583162049       19.5723865939        6.4734646721
  O         4.9586738548        8.3431802665       19.8783829753
  O         3.3202206388       18.6256664337       12.4531448679
  O         1.2805063226        7.7827901111        8.9114158903
  O        16.2348278947       16.2002830327        7.2170201055
  O        17.0956766330        3.6975568055        1.4048259803
  O         7.4879887900        6.0470275250       16.6399407549
  O        15.7958460630        1.9123872158       19.0586485642
  O        -0.1757295904       18.5121778561        1.9921597047
  O        -0.3097834703        4.1048793064       13.6688831726
  O         2.0879347213       17.8620546746       17.3308137595
  O        11.7477178693        3.9589128879        3.2582985566
  O         0.6823644002        2.4277900297        7.4751690765
  O         4.5446523196        2.7904728381       14.3272181886
  O        16.7148895281        4.6649440797       10.6269750710
  O         5.5758487966        5.2992488381        3.8185987164
  O        11.5123462329        4.1925303625        5.8863557929
  O         4.5427117680       19.0486305428        9.2099471076
  O        14.9258606091       15.5597936747       16.0688626670
  O        16.8351828994       11.0835274295       19.2828854803
  O        14.7326568015        4.9300221548       20.2462610158
  O        18.9337376868        3.7619670929        5.3140559658
  O         3.5072165967        8.0584095874        7.5420054597
  O         4.0980065065       17.3398881989       19.1025921623
  O        13.1899076140        7.8066226660       16.3463384113
  O         1.9345710179        3.2789261202       15.0699387557
  O        15.8601388722        4.9007180995        3.3532993258
  O        14.6695957986       11.5004146640        1.8102070390
  O         9.5481095017       18.8981493386       20.2607030374
  O         5.8429744477       19.7331789765        2.5305339892
  O        16.9315206897       18.7510399101       12.6384083353
  O         4.9228733576       12.3985526053       15.1212465120
  O         0.4991153375       15.9343029165       16.4182622686
  O        11.1551551355       18.4278763053        3.0219465083
  O        17.7819908572       10.9190013833        2.3431167953
  O         9.6041665855       16.4656094824        1.8945954553
  O         0.6035582044        1.5926263758       13.5109525569
  O         7.2371314774        3.0343489987        3.9174142102
  O         0.6407249650       18.5916277183        9.8522014109
  O        18.0651302326       20.6249882740        0.9666503889
  O         3.3191515152        4.7929634374        1.4731519662
  O        17.7684799923       13.6349980468       14.8729655082
  O         0.2052318292       13.2656217055       16.7659732806
  O        14.8434029755       12.7818338621       18.8104833458
  O         1.0191233049        7.4811413715       11.6173524693
  O         8.0091282960        2.6069001258       19.8917607282
  O         0.1071640917       10.9748872088       19.6487186566
  O         3.8271632837        2.2173171108        9.1135454197
  O         9.8031372276        3.3648012948       15.2726583996
  O         0.6735453438        7.5922382816       18.4418162906
  O        12.7575505456       13.2366238558       20.3727721214
  O         6.3021968203       18.7888213452       14.7750259185
  O         3.3600883063       12.5916716943        1.8087045287
  O        14.3560168105       16.4211217555       18.5440323179
  O         2.5706205599        2.8915417075       19.2222079009
  O        19.5291384896        9.8689372832       13.7119553677
  O         7.0677930559       15.4474779588        2.2881714908
  O         0.3032202166        7.7227107566        3.6150491740
  O        17.5157520901       17.6555093174       10.3318182008
  O         8.9448364553        2.1902177007       17.5105322638
  O        13.9088294423        6.2066277517        7.6940458242
  O         2.1296452401       10.2133795940        8.6131265287
  O         2.4998779225        9.1582733269        3.4737915611
  O         8.4960571567       18.3419092619       13.5669361259
  O         3.4508458692        0.6636225869        6.7757942733
  O        12.3958761217        6.0368861299       14.5659326074
  O        12.2817680531        9.6040479492       19.2489220904
  O        15.4005765065        7.9615781499       19.1303403047
  O         9.9586998381        9.5824857392        1.2719813309
  O         6.7854025188        1.0750524066       12.8008673985
  O         8.6017204740       20.5381628527        6.2489112792
  O         2.7413077026       11.1713975584        6.0842321584
  O         3.1992238176        4.8642189004       13.1695521475
  O         5.7637252362        6.1015897816       18.7602874142
  O         1.9957467674       17.3477696322        4.7457817974
  O        17.6203843467       20.1793070607       17.1237945553
  O         2.6352861992       14.3562401638       16.5620928164
  O        -0.7686443513       18.4731860190       18.8448801270
  O         1.7646467935        4.7653114238        6.7342175600
  O         3.7438316915       20.1983247690        4.1953336405
  O        15.2319981679       18.0638349280        4.1831460958
  O         9.3245804516        4.4803299627        1.9454479251
  O        12.4251269541       17.7284234157       19.7268385414
  O        14.5224575620       16.7779985708        1.9083562728
  O        17.0293566936       12.8982098540       17.2982762230
  O        13.6712464280        6.4855693613        4.4405081956
  O        17.2866351686        9.4218616988       10.3951281945
  O         4.9548906345        8.1313429200       17.1485652404
  O         1.2700587089        5.2331643119       19.3007075313
  O         0.5104601436       12.0983277326        3.5663312775
  O        18.5879480973        6.4880161706        9.8070754279
  O        15.0289063255       18.7377923734       19.4943274900
  O         1.7960882241       10.5189845642       15.8850003293
  O        -0.3760328884        2.7549290747       16.0092888447
  O        14.1619986272       18.9988926634        9.2872088037
  O         5.6166427049       11.4440888477        1.1247512769
  O         8.5370151016       18.4088434821        3.4001021360
  O        15.0731356449        3.7463830897        7.9272375126
  O         3.1898163371        6.7514648804       18.5483788529
  O         0.3966890185        9.7190856618        6.5565909687
  O        12.4121263223        1.8517546048        5.0451756403
  O        18.3391500462       17.7894906539        7.8758630162
  O         9.4468226315       17.6804265966       17.8918416741
  O        16.9471603821       20.2612548472        4.2124421035
  O        18.4502902950        4.1370424475        8.5980739263
  O        18.5393983848       13.1594378030       11.0311531372
  O         3.8099285504        4.7574453981       15.8310880441
  O         4.4154197894       16.9816861839       14.3052038031
  O        15.5585478595       10.7363207763       17.0416553547
  O        16.5103125156       15.7067368717        3.3757727647
  O        16.2873078943        1.5423713446       14.2897123918
  O        15.7799684076        4.2374969595       14.2025088676
  O         5.9317242094        1.2694656908        7.7175483701
  O         1.8331246781       17.5094500477       14.5555765218
  O         7.4979739517       17.2735955208       19.7316988696
  O         7.7886010230        7.8772548358       18.6223809802
  O        13.5449437422       17.9619896788       16.3662878927
  O         1.9762087716        2.5275789708        5.2746223243
  O        16.2383075182        2.9868031496       16.5167728776
  O        13.9672382982        3.8317446070        4.5167826480
  O        -1.2006389923       16.5092023528       12.7481061506
  O        17.8024175276        8.7550068225       20.0580905244
  O         0.1418118861       15.9563448397        9.5228973919
  O         6.2143884930        2.4105273661       17.8689034128
  O         6.3124155067       16.4291388593       16.2339821197
  O        16.9548520730       17.6614344151       16.7920683845
  O         4.5144135068        3.0017839823        5.9360359336
  O        16.1417564757        1.4915216131       11.6424184572
  O         2.6862325034        6.5905128198        4.0822119154
  O        17.8337253879       21.0154316653        8.6391249302
  O        -0.0695680364       18.4425563034       16.1159258531
  O        15.7188831534        8.3373673066        2.4858169327
  O         1.7923489784        5.3863956807       10.2133764697
  O         1.2095816771       20.1121014118       19.8170942252
  O         0.5412785521       12.1307740192        7.6825975715
  O         6.7511639628        4.6156642471        1.8045607088
  O         2.8221082484       15.9467433406       12.3866163352
  O         3.4392269208       20.3970786079        1.5616264112
  O        11.5443789444        3.5102087680        0.6191947703
  O         3.4511620582       19.9121476893       18.3388004536
  O        16.5394945926        6.0061558750        8.2163590959
  O         2.5713991115       14.6518867685        4.9461948239
  O        12.3243445693        8.8191608797        2.3688991237
  O        12.9993576697        5.2212078385       17.0540769073
  O         8.5502196186       14.8377429314       19.4468054350
  O         5.8213268801        9.1607896425        4.4881098490
  O         7.6443648986       19.6518996930       18.6591262211
  O         8.2560911185        5.1865762858       -0.3134389296
  O        14.4481407403       19.1953412743       13.2578182820
  O         1.0674454395        3.5389310823        2.1287880710
  O        18.7699683413       15.5798108467        6.2798101264
  O         8.3567104769        1.1858441309       15.0456218124
  O         8.9824547279       10.5240483113        5.3918875372
  O        17.4085729431       12.4019607933        4.6654843290
  O        17.9185500474        6.7647408264       17.0440155617
  O        19.1102433816        8.8699208579       16.1606449650
  O        13.9773337937        2.4502550561       15.3370563095
  O         4.5170563995       18.4002547911       16.5715350981
  O         0.2969601089        2.4789350152       10.3147713203
  O        13.9729094705       15.6996264960        4.4017093690
  O        17.5865988149       17.9020266841        5.4127836964
  O        15.7348716281        5.3268387048        5.8443108351
  O        10.1420944197        1.9116087025       21.7895929854
  O         4.8494524147        2.8938313657        2.7931947482
  O         1.1463890440        6.5172582068       15.9614115254
  O        18.4753090056       11.1985631204       15.6959491455
  O         4.8690049598       13.7721283558       -0.0878336821
 Na        13.3887435193       14.8119492696        6.5093732842
 Na        -0.5495886655       19.0284047604       14.0060897599
 Na        14.2339986247        3.2452233270       17.7613196490
 Na        14.2584981332       17.5552939406        7.2149083755
 Na         4.5959953572       13.2026476322       17.2940622811
 Na        13.4021088062       19.4490424974        3.8291692871
 Na         5.0084948589        3.9470121395       19.5703434235
 Na         2.3533147184       18.5643930025        2.8785516951
 Na         5.9246943455       15.8742567189       18.7031024141
 Na        19.2795499807       21.5291739497        3.4290127632
 Na        19.2492672825       16.8676622114        3.8797662263
 Na         3.0101826674       15.2676730639       19.9298921750
 Na        14.8949487755        5.7086449274       15.8470982022
 Na         2.2049549441       20.2331358260       10.4041209263
 Na        11.8590623799       18.6540248749       17.7300561724
 Na         7.3542385436       16.5591300250       13.4150908763
 Na        13.5156445308        3.2434339056       20.8837649355
 Na         5.4092133051        0.0345401073       11.3114125958
 Na        19.9010639670       13.6000001407        5.5882918975
 Na        11.7207982538       19.8728919312        1.2237842585
 Na        17.2291743355       14.2064270395       12.4613040817
 Na         2.1405139087        9.9494380025        0.7665383610
 Na         4.5761694711       10.8016557259        9.9417547678
 Na        12.1345079017        3.8141767488       14.9236409086
 Na        12.6113122399        4.1475334271        7.8727306988
 Na        14.1731377355        8.5033794519        4.1103139326
 Na         1.0559309387        6.3628455368       13.7238101027
 Na         2.3659261086       12.4503460113       15.0904035012
 Na         4.1179704949       18.1498311306        5.3437244332
 Na        18.3452892586        5.4860862268       19.0319393856
 Na        10.7924169489       15.6145680992       -0.2189016053
 Na         1.6136361597       16.1100731186        6.8862831416
 Na         7.9568809889       20.4538567458        2.4584853546
 Na        15.5136848994        2.4508843314        3.5000241791
 Na        18.7927912867       11.9905989533       13.0579090849
 Na         8.3003418821       15.8971306841       17.2325814158
 Na        16.7539852735       18.9766623881       21.4942397522
 Na        12.8786615952       19.8982577582       14.8666574633
 Na         2.6344049192       17.2007367200       10.0855515324
 Na        14.6151634012       17.0985886986       14.1302727715
 Na        13.7925020150       14.3324248077       11.5107731855
 Na        18.2453191407        8.5641243240       12.2090964592
 Na         4.7689455660        9.8729523109        2.5085750366
 Na        15.0580293631        5.1482335535       12.2716049659
 Na        10.5543226964        9.7710803460        3.7333653856
 Na         7.0853592139        8.3884350958       15.8007710501
 Na         5.5804828342       18.8413193389        0.6095367436
 Na         7.1370696377       13.0566355725        0.0655035593
 Na        15.8204758446        8.0712141345        8.8750446406
 Na        11.7001339962       16.4490818199        3.8918709449
 Na        16.3856777657       19.1189670879        8.6831184475
 Na         4.9030540324       14.4622287822        2.6733896684
 Na        17.1026373689        2.6167136252        6.6039646411
 Na         9.7120387361       18.4428899085       15.6523055374
 Na         6.2633276747       17.3206265281        3.3730624976
 Na         4.4983164096        6.5325355011        2.1336421213
 Na        18.0381789370        6.0608401846        6.2833722448
 Na        17.9216528386       11.3184945251        6.5443925765
 Na        17.6446896587        8.5337890432        3.5090672376
 Na         2.4406397025        3.8874397505        9.0144108300
 Na        12.8343785091       13.7415762701       18.1194578509
 Na         9.9680556512        8.3988229386       17.8734570604
 Na         2.8727143209        4.3107669926        3.6441835146
 Na         1.7324055027        7.0078967944        6.3228111473
 Na        18.8073133966       14.0747392326        8.5354902039
 Na         1.2660573267       13.5893157076        2.0304615445
 Na         7.5415267567       11.2160871480        3.1499277321
 Na        20.0504839514        9.9714808316        4.3676573367
 Na         0.5443906528       15.4365377530       11.7315241464
 Na        11.8523233334       19.1769068592        9.0494892544
 Na        16.6966756580        8.7575620763       17.4145526910
 Na         1.2642306235        3.8870946341       11.8338416831
 Na        16.3256761395       14.4534883972        5.3967046634
 Na         9.0078591763        4.3879771680        4.5055462210
 Na        -0.7664337858       13.3949392609       19.2490892514
 Na         5.5209564406        3.4626291606       12.3473129871
 Na        10.3993785893        9.7700654416       10.0468475959
 Na        10.5094808992       20.2488809061        4.4339042473
 Na        19.8825789951       19.5514237410        7.4986749598
 Na        15.8285180496       15.5844315829        9.5291240174
 Na        16.0587460927        2.7035812342        9.6646468589
 Na         4.1705210757        5.3635409433        5.7724298302
 Na        16.6498252409       15.9233457780       18.0591209362
 Na        10.8609724625       11.6089438621       19.8729988139
 Na         5.2800808445        1.2572070691       15.9971532506
 Na        11.9509994347        6.3481738402        6.1727544296
 Na         9.0499823579        2.9221784305       12.9618641552
 Na        11.2866120623       21.4627312042       18.3924898871
 Na         6.4581385029       14.2212762961        7.7918897957
 Na        10.5475759732        5.3852841448       18.7219575878
 Na        12.1778906858        6.5464678308        2.8192561157
 Na         5.7226693034       17.2259303524        8.8398142702
 Na         3.9701888354       14.8719607552       14.8609621411
 Na         1.3441254552       11.4903030950       17.9049654164
 Na        12.8555833398       13.4447511842        3.3485018946
 Na        13.8567942615        1.3441746972        7.2665188283
 Na        10.6466394969        2.2084491329        6.8181609772
 Na        -0.9907240296       20.0811259008       11.1254034344
 Na        17.2261581082        3.4574915159       12.3266191896
 Na        17.7660499838        5.2716000086       15.2462122940
 Na        10.0252104605       11.1670280259       15.1263856135
 Na        -1.7832065112       15.9559401112       15.0246408439
 Na         2.9377302066        0.9415647455       13.9447265528
 Na        12.7669073846       12.6065743885        8.7210374255
 Na        19.3887643104        5.5294717915        3.5024958361
 Na        15.1454447380       13.4002390098       15.6839264053
 Na        -0.1018946253       16.3093357054       20.1980552134
 Na        15.5394700540       11.3992697060        3.8939368942
 Na         3.8698968135        9.0342351903        5.4134320988
 Na         2.7594505333       11.7535575836        3.8427236168
 Na         2.0244615358        4.2433224093       17.2645355718
 Na        18.6620483115        8.9925176949        8.5020064418
 Na        16.4554835347       10.3767804408       14.7374545889
 Na         5.9262784081        4.1691737776       16.3588047726
 Na        13.3908267639        6.3705376349       19.1984641727
 Na         6.4544782740        9.7037956726       -0.3370858015
 Na         1.3523733775       12.4131759758        9.8258827609
 Na         8.8151882907        7.6826274221        1.2262363581
 Na         2.0090865367        9.2765488646       12.4698183957
 Na         5.6502553415        3.4969738698        8.4966366259
 Na        15.4265665518       19.4448172502       16.5612935035
 Na        13.8188595247       20.8597547541       10.5749897824
 Na         7.1969096421        7.9421399542       11.4329607215
 Na         3.8549703133       10.3083615370       16.8956167006
 Si         0.9230218951        3.4969013048        6.1982051715
 Si         8.0544465292        4.1971692982        0.9513385638
 Si         4.3141660021       12.3434862259        0.5767064711
 Si        17.6861693916       16.7416008403        6.6325786761
 Si        17.2353481662        2.4942968843       19.7291901369
 Si         1.8946384768        7.6944712619        3.1456230873
 Si        18.2843817325       12.2711064904        3.3114924213
 Si         3.4045491169        1.8199765249        5.5454637149
 Si         6.1008817152        3.9595798495        3.2032460148
 Si         9.5401447628        1.9118387302       15.9619347590
 Si        17.7146419540        2.3617942388       16.9101268879
 Si         9.7324482166       18.0954060364        2.4090905954
 Si        16.4428664866       19.0337282347        5.2172856873
 Si        14.3475867736       12.9064331466       20.4312160517
 Si        18.9234512969       17.4268658207        9.4256318960
 Si        10.6863413069        3.3841954213        2.0210795780
 Si         8.5929980280       18.3284575983       19.0242942945
 Si        12.2657745447        6.3977371742       16.2133321428
 Si        17.5356799607        5.2563442060        9.3916561859
 Si        11.3725964955        8.7549128771        1.0241756199
 Si        14.7620885142        5.3214657682        4.5372367047
 Si         3.1170545874       17.2485837313       13.2332809567
 Si        18.2522151175       12.7891762012       16.0505512369
 Si         2.6490576231       20.7137048414       19.5733525244
 Si        14.0000488278       17.4424355287       19.8441419671
 Si        14.5050291013       20.3288672403       19.7442680398
 Si        13.7987420227       16.4399873542       16.9316837345
 Si        18.1262591025       18.6195345303       17.1833027756
 Si         4.5822715781       20.6589325119        2.8440735505
 Si         0.8953540927        6.7251767987       10.1910403564
 Si         8.1661855398       15.9144415707        1.2697579133
 Si         3.5899377831       18.2594196063       17.9364760874
 Si        18.0700252941       10.4376327115       20.2257598552
 Si         7.6062256294        1.8602587566       18.4487066806
 Si        19.4357056313        7.3965057006       16.8634306023
 Si        16.7316859172       14.6755226630        2.0563451082
 Si         2.6523380074        8.6688975084        8.8405368981
 Si        16.0213118321       11.8443799425       18.0910913635
 Si        19.0449448458        2.6096397529        8.8553847591
 Si         0.3273592496       10.0608182864       15.3122313137
 Si        15.8083963465       19.9864324186       12.8974299779
 Si        15.1728705180        5.2786284115        7.5017017001
 Si         3.4308444219        3.9519325857       14.4537960192
 Si        15.4706110480        2.8212030124       14.9415094677
 Si        -0.2214232314       19.4230675184       20.0964301512
 Si         1.2023036514       14.5435120358       17.1681135810
 Si         1.7040682270        6.7943756894       19.2912379851
 Si         7.3597503361        6.3677041984       18.2607328246
 Si         4.4153456779        0.9835414813        8.2621227340
 Si        16.0493417174        5.0722187417        1.7181445158
 Si        12.3739773204        3.4334590290        4.7108475643
 Si         2.6486824323       16.0370035040        3.9360919381
 Si         0.4495017858        2.9046638983       14.4706899663
 Si         4.7100841595        7.3888914636       18.6091508862
 Si        17.0480061265       17.2960719054       11.8870272872
 Si         5.4378776156       17.5754422235       15.5573306142
 Si         1.4464010192       10.8584234586        7.1446460745
 Si        15.0169634611       16.5213634115        3.5053070902
 Si         7.4774955846       19.5978182795       13.9248253394
 Si         2.0086646702        4.1197788806        0.9708962400
 Si         1.2003280711       17.3620703291       16.0602894239
 Si        16.4136473990        7.9034679626        0.9729292790
 Se         4.4758101770        8.1447062878       13.6214267238
 Se         6.9169335590        5.4329868668        6.7562449867
 Se         5.7787157332        5.6841998490       10.4551612252
 Se         8.5530996639        5.8146285652       12.8808621934
 Se         8.3208217120        2.8634692801        9.8508759850
 Se        11.5752545771        1.2326100997       12.4018049601
 Se         2.7620761363       12.3887437655       12.2476076793
 Se         5.8642479363       12.8972591762        4.9510058142
 Se         7.2927499916        9.5583036672        8.5138955134
 Se         7.3207198171       10.8489038604       12.4644258108
 Se         9.5006672623        7.2559366982        4.4288654349
 Se        10.4348339152        7.2173430617        8.5534036526
 Se        11.1794531551        9.2261184624       13.1876424969
 Se         8.0840967071       11.0944986466       17.2020792718
 Se        12.5444594420        4.9998974935       11.2228821426
 Se        15.8963497335        7.9508563367       13.5783052930
 Se         6.7851444148       16.5046594035        6.0784349560
 Se         3.5011540260       14.3675150124        8.6664793723
 Se         6.7398021492       15.0195251318       10.8890973809
 Se        10.1203950541       13.7585563653        3.8278365866
 Se         9.1777480111       13.3725592333        8.2396720186
 Se        11.1837898690       12.3868937727       11.2251069715
 Se         8.9706107435       14.3029952695       14.4798822079
 Se        16.3661713660        8.9493862027        6.1188033338
 Se        12.9737035204       11.8519676918        5.7675154546
 Se        15.2970157451       12.0454411966       12.8411781792
 Se        12.5949006409       12.0066456871       15.9006766045
 Se        13.4608974257        9.6562947224        9.7572124811
 Se         8.5019481066       17.8967570389        9.8339258590
 Se        11.8275705893       16.5047909453       13.0243303062
 Se        11.1671260433       17.5674952828        6.5841026609
 Se        12.8605716524       15.6057132250        9.3163813336
 Se        15.8820594194       12.7375607169        8.2104246525
 Cd         5.4069690374        7.3488754619        8.5699479700
 Cd         8.5904289828        5.3257675120        8.7820610649
 Cd         3.6088862554        6.7476346700       11.4833011043
 Cd         3.3883803351        6.9890778076       15.8510263612
 Cd        11.0631273408        2.8353137295       10.2989442378
 Cd         8.0621928808        0.7046173697        8.3433541822
 Cd         3.6407803124       13.3060774052        6.2892459450
 Cd         6.9342204423       10.6702244104        5.9950447044
 Cd         4.7972512046       10.9510385176       13.3679425057
 Cd         7.1087167990       12.5307396467       15.1591067495
 Cd         6.9630876736        7.2954720410        4.4461897907
 Cd         9.0337472544        8.5791637193        6.8309112390
 Cd        10.8653609010        6.5589844147       12.5922861469
 Cd         9.1501825215        5.6737896141       15.3797259936
 Cd        12.7608049921        7.1071352432        9.5189164012
 Cd        13.3586135939        8.0732345333       14.0244010981
 Cd         7.9509617671       14.6795956301        4.6262153412
 Cd         4.3999078289       14.0994440501       11.1271884869
 Cd        10.4235126389       14.6737804497       12.1148054308
 Cd         6.7231774903       21.7168619627        5.9342122362
 Cd        10.2850402066       12.2750380601        5.9859362715
 Cd         8.1538987333       12.7548742683       10.9562796211
 Cd        11.2766951453       15.1914972812       15.3067642782
 Cd        14.1764008832        9.5597463751        1.1944487126
 Cd        14.6450833689       10.5222036824        7.3431645895
 Cd        12.7684758714       11.3630664011       13.3040880307
 Cd        13.4289424236        9.8999857570       17.1549605670
 Cd        15.3378926049        9.7014017022       11.5060235708
 Cd         8.6286329650       18.2439107871        5.6395538044
 Cd        10.0658960927       18.6225892982       11.8180711021
 Cd        13.8726824964       17.7364197187       11.0345491717
 Cd        10.0114195826       15.8883474260        8.3205500674
 Cd        17.3637914813       11.5159020832       10.0591790559
