438
 i =     9700, time =    19400.000, E =    -10932.4014597215
  O         4.0073867839       16.3810021189        3.2360643857
  O         3.3612041957        8.8576317467       10.2230538534
  O        13.7896731382        1.4430603732        1.6885994767
  O        12.0435686394       15.9434472987       16.9044528576
  O         1.5475977295        7.3786394176        1.4754992205
  O        15.8383827116       16.3256520261       11.6175552706
  O         3.6925803953       11.4511701459       18.8722152346
  O        17.3356320695       15.4623908041       19.8128664983
  O        15.3450768919       14.1318186774       20.9513916987
  O         1.4733111725       15.8218391024        2.5560227797
  O        10.9877326729        7.2820489470        0.6345952415
  O        17.9135989871       13.8607632607        2.4523352796
  O        10.8017367695        6.5954917336       16.6179104349
  O         1.2562910670       14.6144790915       18.7047630704
  O        17.8580908415        3.1923403742       18.1660926231
  O        11.8300798232        2.0632835785        8.5668930273
  O        13.4474321742        1.5064094266       18.3050125287
  O        17.0636470592        6.4968785986        1.4536975420
  O        10.8251955137        0.7957865740       16.0854481021
  O        15.4461526584       19.6523942650        6.1366281933
  O         4.7689099515        8.1201243340       20.1147235988
  O         3.1955815837       18.7944696439       12.5066461740
  O         1.1174299545        8.0422313943        8.9309421257
  O        16.1852929362       16.6033554874        7.3918815631
  O        17.1944651253        3.8794016203        1.2604836204
  O         7.2995989992        6.0450684669       16.6483139172
  O        15.7533641086        2.0787994839       19.3383271983
  O        -0.3777101118       18.3521776217        1.7709012513
  O        -0.2978812150        4.2315860913       13.5316974724
  O         2.2718502791       17.7085024541       17.3510110847
  O        11.8460913339        4.0138765222        2.9933968743
  O         0.5188871913        2.5533524969        7.3952228230
  O         4.5987139479        3.0149383023       14.0959834452
  O        16.7063829601        4.7876403310       10.6503386135
  O         5.4133892645        5.0628498616        3.8236507529
  O        11.5236499266        3.9934334078        5.7323305939
  O         4.2148413754       18.8226099876        9.0072344974
  O        14.5526876147       15.6439848629       15.9166241317
  O        16.8889544946       11.2523036043       19.3115176866
  O        14.8810101055        5.1620861580       19.9964173846
  O        18.8415902010        3.4030049346        5.1224466792
  O         3.4066004911        8.4301044815        7.5371311463
  O         4.3402948980       17.6466297845       19.1155041816
  O        13.2650995060        7.8342785887       16.7165021876
  O         2.0280942573        3.2609942262       14.8427955676
  O        15.8753523448        4.9811123520        3.2608334935
  O        14.4532399179       11.7523889092        1.9282370327
  O         9.4331958209       18.7776140066       20.3075238914
  O         5.7701371851       19.6098563618        2.7840400429
  O        17.0130769077       18.6776244227       12.6888462943
  O         4.6677081943       12.3881244920       15.5372968277
  O         0.4726408322       16.0428850425       16.3031900733
  O        11.1639428080       18.1447561492        2.9242654870
  O        17.7668490170       11.1845088652        2.5255391585
  O         9.5868946215       16.3150693299        1.8723676802
  O         0.3706172502        1.7475361274       13.4368245811
  O         7.3199306981        2.9553741208        3.7812793159
  O         0.6155599644       18.7848426148        9.7507564909
  O        18.0827074808       20.7491874547        0.8637726022
  O         3.3264738667        4.8534727220        1.3112883503
  O        17.5803514872       13.6802220450       14.8075775396
  O         0.0802731798       13.5270051544       16.5914503892
  O        14.8781013625       12.7664697968       18.6781800675
  O         0.7562093370        7.5468570663       11.5951132181
  O         7.9952316688        2.4950994378       19.8333822020
  O         0.1833377764       11.2266630658       20.0358962158
  O         3.6091009599        2.2009044309        8.8150428027
  O        10.2683376355        3.3393479392       15.5088249669
  O         0.5090576161        7.6101485446       18.4125505239
  O        12.8308280981       13.5057030823       20.0971308909
  O         6.4611919726       18.9783684523       15.0448855078
  O         3.3915690810       12.2941882767        1.9667264194
  O        14.1775199625       16.7209716642       18.3272235569
  O         2.1214862760        2.8549856510       19.1485323072
  O        19.5047615944        9.8129638231       13.9699859622
  O         7.1408309733       15.2728623548        2.4350765092
  O         0.4464327592        7.8287078194        3.9234253682
  O        17.6614124885       17.6954346370       10.2863011510
  O         8.9821292793        2.0754052531       17.4294541697
  O        13.7007194523        6.0171717718        7.8605033882
  O         2.0784742221       10.5966878544        8.7297801828
  O         2.5561680210        9.1882272591        3.2250406664
  O         8.5390921035       18.5209430847       13.5899462182
  O         3.4615874086        0.5797753014        6.7046637364
  O        12.6237897012        6.1238573361       14.7349999209
  O        12.3367769859        9.4691669553       19.2921270732
  O        15.4988154973        8.0819146487       19.2003060261
  O        10.0940581660        9.8203161037        1.4495727816
  O         6.7627762578        1.1105003067       12.9602766187
  O         8.5265893635       20.4685822842        6.3763439884
  O         2.7087347402       11.7430971588        6.3321253135
  O         2.9572384537        4.9848036021       12.9844333994
  O         5.6021162753        6.0012906307       18.4472429195
  O         1.8982263877       17.2422496238        4.7694973737
  O        17.6151475044       20.1924735528       16.9349111394
  O         2.5926561062       14.4801421159       16.3559326699
  O        -0.7622735931       18.5049900398       18.5746172818
  O         1.5827926707        4.7690423021        6.2065265600
  O         3.5895870941       20.2052757393        4.1200951853
  O        15.0988633042       17.9688212981        4.0884350625
  O         9.3404228963        4.4538817642        1.8815279010
  O        12.3197916134       17.9856891588       19.5959647932
  O        14.3702796575       17.1350035299        1.8080380067
  O        17.0044710814       12.9011376814       17.2049127398
  O        13.5619793564        6.3864956692        4.2649955384
  O        17.2167646530        9.5999439326       10.3670283313
  O         4.7873105130        8.2487116926       17.3955511103
  O         0.9254349047        5.1562567323       19.3676588499
  O         0.4657155616       12.4502787520        3.7545683271
  O        18.5697288938        6.4126055942        9.5765946101
  O        14.8923833706       18.9489006840       19.4678768387
  O         1.5941205045       10.4980591144       16.3324565363
  O        -0.4599562269        2.8833655076       15.8084586181
  O        14.1874512345       19.1398476032        9.1649822113
  O         5.7201953179       11.2931434765        1.2800748582
  O         8.5950401609       18.4828877023        3.5070570436
  O        15.0179459225        3.6331701705        7.5965335767
  O         3.0182282717        6.6369657696       18.5329383641
  O         0.6041949677       10.0367036025        6.6198394638
  O        12.4510468411        1.7166808651        4.6169263872
  O        18.7193082949       17.7581463981        7.7935377856
  O         9.2743327514       17.4598433513       18.0081545983
  O        16.9013855552       19.9896206305        3.7648435648
  O        18.1249050813        4.2292301007        8.3332375589
  O        18.8348793449       13.1107760148       11.1257832264
  O         3.8342026242        5.0074077231       15.7085565726
  O         4.6289853570       17.2634159829       14.1313163745
  O        15.4943755278       10.5949612219       17.0904542884
  O        16.3584383026       15.9669442109        3.0978501290
  O        16.1523713492        1.2857957481       14.0759636079
  O        15.7929840493        3.9788068110       13.9538112852
  O         5.8857438151        1.1786712167        7.9504068021
  O         2.0490700620       17.6548256984       14.6426489862
  O         7.4016438566       17.2900644945       20.0279087329
  O         7.8137422673        7.6979391904       18.8205750850
  O        13.4830244636       18.1504556562       16.0738486338
  O         1.8086050630        2.1540262245        5.3677205385
  O        16.2115907285        2.7457860948       16.1979451130
  O        14.0247892316        3.7674731859        4.6127397133
  O        -1.1223007249       16.3683429672       12.7113658688
  O        17.8421983622        9.0187785244       20.4471926134
  O         0.5076506855       16.1870615185        9.6834802282
  O         6.2573708795        2.2991672972       17.7017940174
  O         6.1156474321       16.3242748832       16.0583298594
  O        16.9853982987       17.5061515835       16.6192552059
  O         4.3571066580        2.9890413841        5.6253668301
  O        16.3287475752        1.4828695661       11.4260430886
  O         2.6681798753        6.4147949142        3.7998591441
  O        17.6529863273       20.9398919521        8.2503730045
  O         0.0494076961       18.6083795572       16.0256417348
  O        15.7285236497        8.6273407822        2.4314636613
  O         1.7729010177        5.6467413605       10.1302661396
  O         1.1329135696       19.8947878329       19.8047187494
  O         0.5966993773       12.5822340137        7.8156396746
  O         6.6160454079        4.4386459304        1.6204992111
  O         2.9522652612       16.0935510174       12.5208483876
  O         3.4943436268       20.4388619061        1.4808135916
  O        11.2998755602        3.3484497133        0.5070584106
  O         3.3053276179       20.0473220120       18.1863472212
  O        16.3753603036        6.0108856309        8.2496238504
  O         2.6167091962       14.7121085543        4.7531837835
  O        12.3497315307        8.8116031350        2.4800997783
  O        13.0508683044        5.2118679385       17.2802894576
  O         8.1900339619       14.8386418406       19.2940515897
  O         5.9083433784        9.1052548330        4.4861031535
  O         7.5996813133       19.5648507591       18.6923775249
  O         8.0692932897        5.0794123892       -0.4162646936
  O        14.4757321855       19.1824847223       12.6349652356
  O         1.1042626714        3.5378780750        2.2189449232
  O        18.4719764530       15.5783527359        6.2943934335
  O         8.3785980000        1.5284387910       14.9290131582
  O         9.1789790029       10.3989031453        5.4855664006
  O        17.2804496777       12.5832397572        4.7301999555
  O        17.8289529564        6.4176458364       16.9145095486
  O        18.8414309600        8.7511643912       16.2480230022
  O        13.8549088710        2.2893889018       15.1157736883
  O         4.5912307215       18.5782677979       16.5505662548
  O         0.0828033059        2.5849316472        9.9714628540
  O        13.7937658674       15.6099017392        4.1118276415
  O        17.4798527060       17.9766003627        5.3936589412
  O        15.6670016457        5.4961389923        5.7754690345
  O        10.1382900697        2.0058674664       21.9642276068
  O         4.8728320310        2.7978204081        2.7734208926
  O         0.9830694727        6.4718344523       16.0475204707
  O        18.3971696571       11.1999422177       15.9537681377
  O         4.8280562536       13.7491931448        0.2921710079
 Na        13.1376822086       14.6194871669        6.3173341362
 Na         0.0073035628       19.0051582565       13.7638322565
 Na        14.4778384754        3.5444286204       17.9570257165
 Na        14.3061001343       17.7949971926        6.9322760049
 Na         4.1236391910       13.1990040982       17.5718542523
 Na        13.1130014776       19.2924297857        3.2785309327
 Na         5.0470908381        3.9784713117       19.5977265667
 Na         1.8381179969       18.6234355185        2.9128618357
 Na         5.7999832020       15.6676422399       18.7175066815
 Na        18.7215666276       21.7314242486        3.2940059914
 Na        19.1195007811       17.1115279048        3.8891747668
 Na         3.1926511613       15.9452771987       20.2771312525
 Na        14.8774559457        5.5255368408       15.4550206221
 Na         1.9011402832       20.7544732256        9.8934380954
 Na        11.5884545439       18.7860158812       17.5725490033
 Na         7.3609630212       16.6346614862       13.1206092349
 Na        13.2767959965        3.6744406429       20.6054329092
 Na         5.2544562050       -0.1250220012       11.7491912625
 Na        20.1226220969       13.8565673897        5.5123015207
 Na        11.5445265515       20.0660919892        1.1523714488
 Na        17.2263922135       14.3397610546       12.7162744914
 Na         2.2763006522       10.0439016738        1.2103317602
 Na         4.5277236483       10.9590370048        9.8914860877
 Na        12.5077787529        3.7796957436       14.3723839611
 Na        12.5693241987        4.0338391127        7.9539571803
 Na        14.2133393072        8.4243398100        4.1883792375
 Na         0.9564689711        6.2753045616       13.6762586022
 Na         2.2410397531       12.3924249379       15.2363117135
 Na         4.0582563145       17.8154491324        5.5171110088
 Na        18.1706854685        5.5478767295       18.9624851532
 Na        10.7811720510       16.2549498000       -0.1509560838
 Na         1.4224137919       16.5219987623        6.8951530474
 Na         7.9507518781       20.4580606309        2.4965222373
 Na        15.2364942153        2.2369732591        3.3616090107
 Na        19.1777669753       11.8830092533       13.0192018822
 Na         8.0659846120       15.7616931446       17.2541957006
 Na        16.5670069809       18.5468944682       21.2641923613
 Na        12.7251926742       19.6908910630       14.5999071601
 Na         2.5763990617       17.5642946298       10.4334961506
 Na        14.6185024773       17.2368835542       14.1468931098
 Na        14.1130498590       14.0209998310       11.2756619251
 Na        18.2771834010        8.6280225714       12.0470682905
 Na         4.8577609033        9.5856820321        2.5546028348
 Na        15.0810379335        5.1607040923       12.1013599359
 Na        10.5846060059        9.7579785022        3.6969939105
 Na         6.5782576084        8.1475971972       15.9620895138
 Na         5.7026235301       19.0489532066        0.5730678117
 Na         7.0133654809       13.0068275075        0.6645380699
 Na        15.8185378616        8.0771239093        8.8828054124
 Na        11.3732576005       16.0597224762        3.6433062052
 Na        16.2722986858       19.2164525094        8.4273111046
 Na         4.9723290908       14.3532890085        2.7512104233
 Na        16.6512343171        2.3915890033        6.3283723420
 Na        10.0224632898       17.9151687349       15.3377089463
 Na         6.0895048502       17.4991097830        3.3042129805
 Na         4.3912513327        6.4558478596        2.2807183924
 Na        18.0617286155        5.6229481913        6.4438685756
 Na        17.9147483517       11.3783361618        6.7430326563
 Na        17.7971324086        8.2985969649        3.6964600818
 Na         2.2587631543        4.1867597538        8.4559452579
 Na        12.9501853715       14.1243833634       18.0422550449
 Na        10.0244802673        8.4677133666       17.8155358093
 Na         2.9693154365        4.0903737439        3.5724881662
 Na         1.6570074530        7.6860070140        6.1295137304
 Na        18.7113189361       14.3951894982        8.4039129056
 Na         1.3886597812       13.4047989969        1.6913556381
 Na         8.1553567284       11.0096998538        2.8894890034
 Na        19.9885642456       10.1680642065        4.3166440387
 Na         0.6728221452       15.3213010182       11.9208871427
 Na        11.9696363271       19.2444213954        9.0080097458
 Na        16.8355015707        8.6097120088       17.4282243849
 Na         0.9905143899        3.8975279274       11.5667688168
 Na        16.4095777478       14.6168401212        5.4498454030
 Na         9.2528943525        4.3257515532        4.8563379814
 Na        -0.8783279220       13.3475587984       19.3591805646
 Na         6.0329148695        3.4127501982       12.5692318261
 Na         9.7116189808       10.0634866853       10.4836835046
 Na        10.4567124513       19.9954535279        4.4093796041
 Na        19.9678135553       19.4501537939        7.1468391517
 Na        15.7422688399       15.6818264980        9.3960603734
 Na        15.8089721258        2.5457778437        9.4311541819
 Na         4.1636446544        5.6328075254        5.5630670625
 Na        16.2088924026       15.6417010315       17.9368737091
 Na        10.9608712774       11.7809630540       19.7579622030
 Na         4.9737452934        1.3264333747       16.0827530987
 Na        12.1278137376        6.2009342729        5.9640674532
 Na         9.2283553935        2.9697479321       13.1207529586
 Na        11.7136805380       22.1293094608       17.5281008380
 Na         7.0675878296       13.8703677366        8.0635002968
 Na        10.6351779038        5.2502236367       18.7021921126
 Na        11.8454910717        6.4644314484        2.7764571246
 Na         5.7079487035       17.0429270893        8.5653911265
 Na         4.5911904693       14.7662047863       14.8682905732
 Na         1.4321880462       11.5298715228       18.2106864153
 Na        12.7775114580       13.2516382838        2.9705785014
 Na        13.7962755363        1.4875550071        6.7675490420
 Na        10.5110668616        2.0574734567        6.8085551592
 Na        -0.9787502167       20.1822241420       10.8101569337
 Na        17.3547255712        3.2868168848       12.5023126439
 Na        17.6532819082        5.2008971465       15.0980965259
 Na         9.6774732827       11.4577814042       15.0268684159
 Na        -1.5398525689       15.9899663561       14.9146705814
 Na         2.6920981288        1.4602687854       13.7092121497
 Na        12.2216409494       12.5687400209        8.8540299777
 Na        19.6760432991        5.3258020522        3.5195876753
 Na        15.0925867417       13.5086510824       15.4326218311
 Na        -0.0519370714       16.2433936187       19.9753677562
 Na        15.8349491079       11.1432207861        3.8261930581
 Na         4.0553990579        9.9529181277        5.7681027632
 Na         2.6323149675       12.1082138258        3.9550329035
 Na         1.9361376559        4.2914113118       17.1059071445
 Na        18.7048270946        9.1840243165        8.4453450304
 Na        16.1511340977       10.2359986834       14.8781926755
 Na         5.9069169665        4.2611270138       16.3296807032
 Na        13.6434243056        6.9255943953       18.9120182070
 Na         6.2649212769        9.5997397211       -0.2912964549
 Na         1.2221565970       12.6106395265       10.0184781740
 Na         8.7659638870        7.5607843879        1.3552678004
 Na         1.8590697690        9.5615927224       12.3668231924
 Na         5.4438987698        3.5147967895        8.4908000009
 Na        15.1199538565       19.5202279965       16.7276764391
 Na        13.8352614402       20.5245596311       10.8221300006
 Na         6.8565778720        7.8035614009       12.1250836211
 Na         3.7973675562       10.3736114117       16.9770126667
 Si         0.8325482947        3.3795507380        6.0121493279
 Si         8.0541411662        4.0468233882        0.9066650340
 Si         4.3708019236       12.1733697489        0.7513345732
 Si        17.6467499586       16.8974994481        6.7897695932
 Si        17.2659835351        2.6005172821       19.5890398053
 Si         1.9015169584        7.7240494271        3.1994728489
 Si        18.2640269585       12.5568748272        3.4448146354
 Si         3.3742725977        1.7226588034        5.5419195256
 Si         6.1224392179        3.7976264334        3.1630031353
 Si         9.6574928460        1.8293673337       15.8971357605
 Si        17.6988874681        2.3966312848       16.7008851772
 Si         9.6511696037       17.9564131442        2.3904180065
 Si        16.2262740231       18.9892431195        4.8735766190
 Si        14.3227010879       12.9721025432       20.2623117128
 Si        19.1222096718       17.5212067085        9.5233036190
 Si        10.6630080159        3.3926299538        1.9686976220
 Si         8.5012315052       18.3142469856       19.0898093393
 Si        12.3750093669        6.4439221176       16.3454344815
 Si        17.3825318211        5.3064043980        9.2998713754
 Si        11.3728729065        8.7693759397        1.0891483030
 Si        14.6794298974        5.2945144665        4.4174631818
 Si         3.1827511263       17.4177326079       13.3856886563
 Si        18.1358602171       12.8364579833       16.0060686419
 Si         2.4983615765       20.6470885069       19.4824214376
 Si        13.8399589568       17.6357159957       19.7004275322
 Si        14.3829844931       20.4838714052       19.5672439359
 Si        13.5524910267       16.6091635209       16.6876565693
 Si        18.0619990105       18.6221753379       17.0197405266
 Si         4.4715515223       20.5618332606        2.8342902323
 Si         0.7202896410        6.8351410981       10.1440795312
 Si         8.0685239229       15.7815310454        1.2272132051
 Si         3.7087313273       18.4223092724       17.8886463607
 Si        18.1037998793       10.6302289413       20.3653242202
 Si         7.6703050030        1.8251082024       18.3286326694
 Si        19.2219298372        7.2765658076       16.8430925001
 Si        16.7305978242       14.8695851011        1.8143603182
 Si         2.5219241113        8.9418515797        8.8650133322
 Si        16.0312868524       11.7281104470       18.0194252243
 Si        18.7904430396        2.6866804452        8.5499606127
 Si         0.2099275690       10.0746911269       15.5809164316
 Si        15.9057862288       19.9092390162       12.6403538065
 Si        15.0773779119        5.2217712039        7.3875512926
 Si         3.4685435938        4.2186109538       14.3025418342
 Si        15.3837472002        2.5737541784       14.7513574770
 Si        -0.4150515177       19.3762441678       19.9567268910
 Si         1.2241573220       14.6963934932       17.0938909667
 Si         1.5167874869        6.7237250212       19.3459655002
 Si         7.2535134695        6.3126783346       18.2163009562
 Si         4.3001800476        0.8496424141        8.2451484511
 Si        16.0810082071        5.1673769262        1.5952386657
 Si        12.3534186888        3.2811347297        4.4227031048
 Si         2.5283366023       15.9996494492        3.8134386316
 Si         0.4835472748        3.0394544786       14.2961487373
 Si         4.5372028314        7.3185140967       18.7039411332
 Si        17.1885176050       17.2191246393       11.8099913220
 Si         5.5263026532       17.7302079094       15.5261887395
 Si         1.4245655146       11.2432956065        7.2947099454
 Si        14.8038612417       16.5723618804        3.3210005033
 Si         7.5658223889       19.7267286403       14.0812547215
 Si         1.9499007607        4.1125166515        0.9794646576
 Si         1.2747437252       17.4335898480       16.0631609359
 Si        16.3952072976        8.0717473652        1.0986425458
 Se         4.3257957427        8.3454414717       13.7826042572
 Se         6.9183851260        5.2321268023        6.8424699295
 Se         5.6790832720        5.8159162619       10.3003808459
 Se         8.4954471340        5.7126929665       13.1229258801
 Se         8.1956526621        2.7976782766       10.1003391499
 Se        11.3732879580        1.3421665148       12.3659142216
 Se         2.8940339180       12.6522352307       12.4738988267
 Se         6.0647786460       12.9151908850        5.2192412694
 Se         6.8207789292        9.9757036550        8.4010877195
 Se         7.1539026790       10.5448989900       13.1521413655
 Se         9.5410742764        7.0867795924        4.4262531526
 Se         9.9617322003        7.2661165846        8.8753861697
 Se        10.9695016384        9.2915898687       13.4350946564
 Se         8.4345462140       11.2005556070       17.6708738775
 Se        12.3262060879        4.9833892338       11.2896974756
 Se        15.7926518814        7.9393962186       13.4211908967
 Se         6.9908364997       16.4205406878        6.1901178661
 Se         3.7340415652       15.0382387817        8.5528096761
 Se         6.9465602844       14.7559514854       11.0253101804
 Se         9.9031305505       13.2776574652        3.4126084988
 Se         9.8184299477       13.5851150828        8.1806652173
 Se        10.9098677622       12.4829026080       11.6609147834
 Se         8.6952759567       14.2047279919       14.9866987959
 Se        16.4306815116        9.0258601124        6.0752913438
 Se        12.9299881292       11.8523496047        5.4425125709
 Se        15.2139838575       11.9882760170       13.0651690367
 Se        12.5948875051       12.1981668973       15.9881092109
 Se        13.3190404503        9.7025258749        9.6200958577
 Se         8.5464661895       17.8095046552        9.7990587265
 Se        11.8024247358       16.6277631087       13.1629285194
 Se        11.1669134432       17.5234676519        6.2174724675
 Se        12.6548636008       15.6498476082        9.5178196222
 Se        15.7292947586       12.9580394274        8.4533034008
 Cd         5.2249456040        7.6696945464        8.5036732299
 Cd         8.1774929060        5.3275259227        9.2695243054
 Cd         3.4325088918        6.5988048315       11.5749574128
 Cd         3.2638713796        7.2210403381       15.8847194769
 Cd        10.8400035767        2.8705267890       10.2103278719
 Cd         8.0423889802        0.6101571475        8.5487787216
 Cd         3.8234380791       13.6743836009        6.3444174130
 Cd         6.9819227322       10.6325291832        5.8887031174
 Cd         4.7603484570       11.1588346984       13.6953188966
 Cd         6.7239455719       12.2322740375       16.1558627041
 Cd         6.7761117068        7.0666029693        4.6809752399
 Cd         9.3927017068        8.5976139436        6.6757655656
 Cd        10.9348081906        6.5191814987       12.9709549323
 Cd         9.2594009959        5.3050264406       15.5806754851
 Cd        12.4551154485        7.1706979202        9.6230229477
 Cd        13.4038543539        8.2880575207       14.1545229587
 Cd         7.9918741406       14.7941396057        4.4108830927
 Cd         4.3562436464       14.4882128794       11.3475668091
 Cd        10.8500055844       15.0541525205       11.4000021687
 Cd         6.7794171585       21.7961213125        6.0384998158
 Cd        10.0222878040       12.3285981101        5.9178697408
 Cd         8.0626458297       12.9494583636       12.6215468314
 Cd        11.2503722247       14.8381298120       15.0745153114
 Cd        14.0884698943        9.7280987549        1.2736354544
 Cd        14.5075605065       10.8519700839        7.2092881096
 Cd        12.7230121144       11.5380106291       13.2265396601
 Cd        13.1916729612        9.9989803284       17.1186040486
 Cd        15.3746029021        9.7734489959       11.4336379932
 Cd         8.5670679451       18.4553297402        5.7509784192
 Cd        10.0742375295       18.6133494271       11.7795476808
 Cd        13.9317857920       17.7190921991       10.8589465525
 Cd        10.1747262833       16.2100082593        8.1922726022
 Cd        17.4724492818       11.7162074774       10.2717655113
