438
 i =    10000, time =    20000.000, E =    -10932.3690179789
  O         4.0719305522       16.4926312164        3.6563949703
  O         3.4745590587        8.8628704201       10.1371986333
  O        14.1248023911        1.2146712637        2.1790834989
  O        11.8612949721       15.8349885645       17.0192449942
  O         1.6558996852        7.4680473647        1.5276050990
  O        15.8873599203       16.4216759392       12.0690169877
  O         3.5368776469       11.5017505597       18.8707773944
  O        17.2556173666       15.5425976485       19.9962503816
  O        15.0117275748       14.2908028848       20.8455575886
  O         1.6905182398       15.7627387935        2.6255524977
  O        10.9783920246        7.4393254213        0.4590025236
  O        17.7196315818       13.7078306590        2.1997312872
  O        10.7440846616        6.6795119682       16.8135711239
  O         1.1800787755       14.8253163881       18.7352261710
  O        17.8197130544        3.1468745860       18.5313350145
  O        11.8599872038        2.1399722325        8.7923810405
  O        13.5535643823        1.6684074138       18.9293732200
  O        17.0676885839        6.5181585226        1.6875051184
  O        10.7922222642        1.0458351779       16.1662778079
  O        15.2890848341       19.8152593642        6.1304314468
  O         4.8776018939        8.1710474339       20.1187192567
  O         3.1176091254       18.8156287328       12.6547404661
  O         1.0815260721        8.0834140710        8.9995083469
  O        16.0284483002       16.5902483493        7.2756619511
  O        17.2288876268        3.9455240862        1.6653558818
  O         7.4089809659        6.2837066338       16.5000233291
  O        15.9386138938        1.8800495995       19.7813918869
  O        -0.4767266619       18.3680376122        1.9054576449
  O        -0.0155609784        4.4075293839       13.7358744880
  O         2.0218681335       17.8243659712       17.5535632583
  O        11.4849856602        4.0646037122        3.2638434794
  O         0.7306420432        2.6918291323        7.6784961920
  O         4.3973656018        2.7917779977       14.5356148816
  O        16.9032380692        4.7192411128       10.8900183660
  O         5.4274832893        5.4389768860        3.7666605109
  O        11.5266998247        4.1717687060        6.0479264927
  O         4.2566147722       18.9622656223        9.3308134468
  O        14.4484041940       15.7258855930       16.2487551399
  O        16.7432084449       11.1582749833       19.4859864181
  O        14.8121821091        5.1181341894       20.4603749672
  O        18.7682667920        3.6842528714        5.4417397599
  O         3.2445572015        8.2369087397        7.5070719734
  O         4.1328280024       17.5481657342       19.0576542039
  O        13.1571163044        7.8409425120       16.3918795947
  O         2.0444654444        3.2902156499       15.1797212750
  O        15.8698044042        5.1982417311        3.5808622647
  O        14.3074159842       11.7913016111        1.9966415084
  O         9.3553372248       19.1086965382       20.3427652126
  O         5.7526813984       19.7576055279        2.6671659480
  O        17.0112299731       18.7714559314       12.6742613351
  O         4.9054044132       12.5418273107       15.6266040168
  O         0.4006264629       15.9840168636       16.4035714702
  O        11.0762375608       18.4624388866        3.0249060488
  O        17.8098935660       11.1091315012        2.5866676562
  O         9.5935733530       16.6799171891        1.7569982805
  O         0.3954432777        1.7170085141       13.9707685431
  O         7.2369765618        3.2264319667        4.0189542056
  O         0.6370852671       18.8320414231        9.6748071350
  O        18.3874568338       20.8892622932        1.2445857637
  O         3.2298560209        4.7715136980        1.0909367819
  O        17.4887802634       13.9246739645       14.9097296849
  O         0.0857758242       13.5162735939       16.7223169816
  O        14.6566136285       12.6442852914       18.7250013141
  O         0.9065840585        7.3526103069       11.6161828466
  O         8.0369660236        2.6682748048       19.7291828022
  O         0.1184162586       11.2423692436       19.9169005241
  O         3.7830744442        2.2270414661        9.2147672995
  O        10.0979822961        3.5858415115       15.4312620434
  O         0.4703091086        7.7179840011       18.4237662499
  O        12.5690754356       13.4823864669       20.2342953450
  O         6.3628725005       19.1089251231       15.1767523357
  O         3.3797639678       12.3966744600        2.0344552534
  O        13.9954814286       16.4987487105       18.5818046907
  O         2.0201139945        2.8640738624       19.1169652490
  O        19.4824760866        9.9548784569       13.7837067484
  O         7.0328813502       15.6147624397        2.2693553352
  O         0.2572592248        7.7036524264        3.9739491873
  O        17.7533936847       17.4959318929       10.5122734769
  O         8.9420638979        2.4042518561       17.4485795695
  O        13.6124354976        5.9999341427        8.0297572972
  O         2.0319181084       10.5135319689        8.6506511365
  O         2.5097289271        9.1848527725        3.3162663408
  O         8.4306152343       18.3699222251       13.6917357703
  O         3.2865844938        0.6707636459        6.9132751059
  O        12.5431091448        5.9385387910       14.8465835301
  O        12.0426180369        9.9372186959       19.2705684584
  O        15.4762055555        8.0174578680       19.3487284159
  O         9.9180775347        9.7408166310        1.4587500858
  O         6.9883186112        1.1043598886       12.7299899545
  O         8.4871721989       20.7011556125        6.3562799407
  O         2.6845282495       11.5727236782        6.2469771820
  O         2.8617608612        4.5749709847       12.9793906817
  O         5.5877618631        6.0000350616       18.4415569140
  O         1.8321630035       17.2505386429        4.9201019336
  O        17.6238540990       20.3322634157       17.0464154178
  O         2.5832981030       14.4845479551       16.4155176093
  O        -0.3925082278       18.7368874658       18.7540489761
  O         1.5666617789        4.9630316625        6.3766840100
  O         3.6126307811       20.3166112351        4.2394762617
  O        15.0502163843       17.9456892163        4.2094040778
  O         9.2778366592        4.4961179020        1.7720342566
  O        12.2179912113       18.1519584473       19.7735046942
  O        14.2172001447       16.9493514002        1.8949724032
  O        16.9236733350       12.8021168281       17.3320365687
  O        13.6112131988        6.6675599615        4.4008380423
  O        16.9999371459        9.4924418532       10.3724784647
  O         4.6901992275        8.3132151052       17.3223365475
  O         0.9925883181        5.3148920354       19.2859216147
  O         0.3605475700       12.4624307313        3.4250835025
  O        18.4765160209        6.6428963726        9.6341595843
  O        14.9587405612       18.7939935902       19.7065336081
  O         1.4429370447       10.6171583831       16.1005051099
  O        -0.4980342009        3.1923946390       16.0509324650
  O        14.1521498640       19.3306088894        9.2814068160
  O         5.7939532943       11.4577458571        1.1774373631
  O         8.4404619662       18.5589998668        3.3597913475
  O        14.9635621684        3.6140038252        7.9471536801
  O         3.0190975353        6.8693400489       18.5791891010
  O         0.4311526286        9.9853232322        6.6490159371
  O        12.2633406402        1.8469174840        4.8490641708
  O        18.4128981486       17.7269186734        7.9089826550
  O         9.4598867251       17.7882093948       17.9465198404
  O        16.8924447807       20.0080587806        3.9958586716
  O        18.0777834705        4.2671067218        8.6140137129
  O        18.7093330576       13.2504090002       10.9372664326
  O         3.8442903349        5.1525532786       15.4566466927
  O         4.5940648688       17.1444830106       14.1857647260
  O        15.2592966585       10.5403966786       17.1855523180
  O        16.3740486782       15.7666840949        3.1833762930
  O        15.9466642957        1.2482966820       14.4540760518
  O        15.7059589679        4.0941680366       14.2902070262
  O         5.8574617667        1.2173793094        7.8939616361
  O         2.0423339847       17.4695318441       14.7393901506
  O         7.3213148314       17.3826835853       19.6935118954
  O         7.6644953755        7.7808625928       18.8145404864
  O        13.1661289628       18.1898872944       16.3465468817
  O         1.7212447866        2.2853793234        5.4428807385
  O        16.2304370366        2.9656315825       16.5051515373
  O        13.7976697024        4.0148885929        4.5314048770
  O        -0.8228150161       16.6589532181       13.0080922296
  O        17.9127435513        8.9224569643       20.2904005991
  O         0.6008012371       16.1284747206        9.6225716867
  O         6.1730978576        2.6530416410       17.8911287357
  O         5.9429435404       16.5836268781       16.4322367661
  O        16.9400396208       17.8965823838       17.2244327804
  O         4.2108312406        3.0905131672        5.8372032346
  O        16.1305660712        1.6368814236       11.7682134344
  O         2.6331947102        6.6233172120        3.9961258082
  O        17.8203679999       21.0048571393        8.3825266886
  O        -0.0762754251       18.5180603033       16.1779731787
  O        15.8325883878        8.7101326853        2.5230309260
  O         1.7441788876        5.6323049233        9.9091575806
  O         1.4003331283       19.8887089394       20.2882304679
  O         0.7033293374       12.5704269399        7.5906618534
  O         6.5355912549        4.3071970405        1.8087149281
  O         2.7592578381       16.2152678859       12.4909491567
  O         3.6182144497       20.7583298956        1.4743948391
  O        11.4815821364        3.4829321121        0.7445367870
  O         3.2650805028       20.0266544385       18.3619491209
  O        16.1164288132        5.9458093699        8.5762241579
  O         2.4423336451       14.6151358999        5.0201961990
  O        12.3233949848        8.9116021271        2.3287556709
  O        12.9956867720        5.3287461225       17.3645181962
  O         8.5761227747       15.0511705773       19.4069643350
  O         5.9887953084        9.2669859672        4.3844430603
  O         7.4987053314       19.7386332772       18.4779981340
  O         8.0301056884        5.2073772018       -0.3609469644
  O        14.3735070150       19.0629330165       12.9200849561
  O         0.9029340019        3.7078884582        2.1361173204
  O        18.4031152755       15.6378819193        6.2153044827
  O         8.3660314617        1.4978976856       15.0292376258
  O         9.0442907343       10.2454812531        5.2709289417
  O        17.2976503788       12.7629088886        4.6587800183
  O        17.9252612107        6.5918469284       16.8799619301
  O        18.7066964331        8.9058672916       16.1356861517
  O        13.8214114022        2.6133747339       15.6212475653
  O         4.2235644030       18.7854218827       16.3763665473
  O        -0.1058138481        2.6195806555       10.3263078838
  O        13.7764174514       15.5640197821        4.2387357344
  O        17.3901248984       17.9788882018        5.5329849580
  O        15.4180745355        5.3785224991        6.0793603608
  O         9.9902408145        2.0680239100       22.1265482471
  O         4.8011282348        2.9616483557        3.1236625412
  O         1.0386072089        6.8229122148       15.8010384729
  O        18.2505176802       11.3898078949       15.5268736497
  O         4.7957774705       13.8968455703        0.2119880348
 Na        12.2164847576       15.2685638055        6.3723537985
 Na        -0.0070932701       18.9759207073       13.6147192723
 Na        14.5513822905        3.8108872669       18.2035555510
 Na        14.0618136870       17.7660262795        7.4711234554
 Na         4.1332547518       13.3159176146       17.5693165857
 Na        13.0118700716       19.4481553965        3.7533353307
 Na         4.8944949739        3.6044931937       19.4039084342
 Na         2.0065238974       18.5876957979        2.9674991997
 Na         5.6572204527       16.0335438798       18.8420575797
 Na        18.8538521081       21.5939421826        3.4999377495
 Na        18.8914101775       16.7928503339        3.9449887560
 Na         2.8434059950       15.6472830310       20.0476430205
 Na        14.8987457975        5.6309314079       15.6790483621
 Na         1.7578462137       20.5826684150        9.9738572306
 Na        11.5139916562       19.0709145983       17.7566375396
 Na         7.3083651640       16.6074695061       13.1281746607
 Na        13.4585772011        3.4332702015       21.2620112998
 Na         5.1012203988        0.1662981827       11.6495116661
 Na        19.8833806424       13.7468850419        5.5225566266
 Na        11.4408581867       20.0383193758        1.3231457292
 Na        17.2278402025       14.3311733280       12.7190521755
 Na         2.2640443228       10.1559578929        1.0836524634
 Na         4.6172937542       10.8549341012       10.1990660686
 Na        12.3290615125        3.7805429737       14.3498855936
 Na        12.2485301383        4.2782449203        8.2577895846
 Na        14.1861534525        8.6736045839        4.1687017682
 Na         0.4869261289        6.5330621206       13.5403927122
 Na         2.1502520762       12.6119429735       15.0741947625
 Na         4.0747922715       17.9066362968        5.3883909634
 Na        18.1908420196        5.7295729376       18.9082011790
 Na        10.7726287791       15.9534057624       -0.1626476520
 Na         1.5896713142       16.2361817900        7.0185618893
 Na         7.7672248903       20.6572200727        2.8242787116
 Na        15.0549049130        1.9938497203        4.0779303231
 Na        19.0693335546       11.8849786175       12.9610601056
 Na         8.1303398698       16.2160902845       17.1116375326
 Na        16.5477787296       18.7363929518       21.5802282437
 Na        12.7786815301       19.8788499837       14.9091888096
 Na         2.5992123191       17.4384321701       10.5172499447
 Na        14.4806765871       17.2332891567       14.3900218283
 Na        13.7496923524       14.2427760405       11.7619027724
 Na        18.4534057797        8.7377308746       12.0248340696
 Na         4.8999190585        9.9336100461        2.5881882041
 Na        15.2157968005        5.1758611312       12.3720860594
 Na        10.7156536194        9.7603890515        3.7120099636
 Na         6.6827937019        8.3292353218       15.8196270028
 Na         5.6057935187       19.1893783861        0.5383852847
 Na         7.4963608870       13.1433431764        0.5832245378
 Na        15.6427852435        8.0972533801        8.8851370631
 Na        11.7888055520       16.0593015286        2.8260081871
 Na        16.3059552190       19.1825862813        8.2221780566
 Na         4.8575475642       14.4005176856        2.7660521702
 Na        16.5202155265        2.6058263484        6.5517175123
 Na         9.7987811427       18.4266148765       15.6661163598
 Na         6.2463949373       17.4880014229        3.3095078702
 Na         4.1532091627        6.5671966608        2.2724768316
 Na        17.7415761665        5.7460611776        6.1792085389
 Na        17.9839921318       11.3798153507        6.4524364829
 Na        17.8165931180        8.8301209525        3.7145117510
 Na         2.5377648384        4.0971857518        8.4872628432
 Na        12.9405962898       14.0780887394       17.8994181719
 Na         9.9600941860        8.5214239506       18.0581785165
 Na         2.9132141058        4.3004534846        3.3105544155
 Na         1.5517499745        7.1783251067        6.1705342898
 Na        18.6590361071       14.0567141459        8.5631719656
 Na         1.1352623522       13.6494132303        1.8113664849
 Na         7.6803189126       10.5175272175        2.4625858253
 Na        20.0361852281       10.1196482065        4.4446723485
 Na         0.6687323299       15.3567339472       11.8511290854
 Na        11.7204548052       19.1447322728        9.0900623423
 Na        16.3502667980        8.2996548430       17.3156087102
 Na         1.0776340267        3.9038464436       11.7019266224
 Na        16.2389680942       14.5147465860        5.3821818864
 Na         9.0712394530        4.3583821776        4.7905255239
 Na        -0.9100663492       13.2767250821       19.2728948902
 Na         6.0096352059        3.4120580663       12.7030531162
 Na         9.7604892386       10.4593039043        9.7164443944
 Na        10.2002773838       19.9921996865        4.5036225148
 Na        19.9001720843       19.7215945071        7.3933956812
 Na        16.0218722556       15.5914805619        9.4997039211
 Na        16.0086872712        2.7432207080        9.8570534681
 Na         3.6760142918        5.6112753950        5.6960129241
 Na        16.1651330135       16.0169693439       18.1107662711
 Na        10.8141224511       11.9383287191       20.0447968195
 Na         5.2061451402        1.4112488478       16.2697118521
 Na        12.1302298251        6.4534543701        6.3687243629
 Na         8.9690420780        2.9421585466       13.1342604826
 Na        12.2033988499       22.2208596968       17.4462562372
 Na         7.0696447365       13.6475195809        8.4174461142
 Na        10.6095928392        5.2148225083       18.7366867332
 Na        11.8327406787        6.5055045098        2.7784796257
 Na         5.7983673684       17.1912106869        8.9034449942
 Na         4.8069269354       14.5991329167       15.0547772977
 Na         1.3216981988       11.8254649676       18.1240975518
 Na        13.0042929989       13.2006133499        3.2497882916
 Na        13.5324199831        1.5644382216        7.4123760679
 Na        10.4932670001        2.2675926161        6.8028445859
 Na        -1.0106323601       19.9802002057       10.8740575694
 Na        17.6777724545        3.0458076423       12.7468875007
 Na        17.5694130157        5.2231890095       15.0175242639
 Na         9.6105929039       11.1580047104       14.8809960153
 Na        -1.8264342808       16.3297184010       15.5065003252
 Na         2.6980518012        1.2809290701       14.2212198658
 Na        12.8165137138       12.7389084009        8.7313637634
 Na        19.3731932317        5.3387793330        3.2984804382
 Na        15.0789880136       13.6583034573       15.3215411727
 Na        -0.0525570275       16.4188288710       19.9690846669
 Na        15.7121883301       11.1905336407        3.3583845726
 Na         3.9277518173        9.3774754717        5.5038213470
 Na         2.7712736811       12.1262633971        4.0427050780
 Na         2.4023176708        4.6774735510       17.2646606831
 Na        18.4899287128        9.1062409773        8.4693363094
 Na        16.1670490124       10.4093613079       14.8884244656
 Na         5.9367884520        4.5296901105       16.1739984429
 Na        13.4056960935        6.9217418014       19.2477512438
 Na         6.2060935212        9.7630528779       -0.3989339659
 Na         1.3206966702       12.8009191433        9.8547469374
 Na         8.8455329573        7.4284210616        1.3498794971
 Na         2.3205565595        9.4920038803       12.2065820239
 Na         5.3938822985        3.7262320489        9.3355908982
 Na        15.1395056110       19.5311026382       17.2269854390
 Na        13.6259174092       20.9472935281       10.7033866702
 Na         6.9598524584        8.4313415813       11.9328527507
 Na         3.7506284821       10.1581627338       16.9039579365
 Si         0.8346483204        3.5209421328        6.1929309131
 Si         7.9368593908        4.1861508451        0.8859153056
 Si         4.4011518440       12.3122977567        0.6527409288
 Si        17.4917789551       16.8611564429        6.6971479042
 Si        17.3158817175        2.5925557734       20.0065299394
 Si         1.7146819384        7.7684246568        3.2889670811
 Si        18.1549866135       12.5790189104        3.3523027276
 Si         3.2910817154        1.8270274162        5.6816393263
 Si         6.0331195266        4.0353892674        3.3196433141
 Si         9.6191365782        2.0918934336       16.0142438715
 Si        17.7035880863        2.5443280314       16.9950135458
 Si         9.6849911880       18.2426802593        2.3781742286
 Si        16.1717482296       19.0181259327        5.0153230255
 Si        14.1155555760       13.0299178547       20.2708788322
 Si        19.0902147889       17.4745679291        9.4177499828
 Si        10.5589830239        3.3593051593        2.0250988015
 Si         8.5243590446       18.4522313945       19.0153486856
 Si        12.2756835169        6.4050702048       16.3732329630
 Si        17.3785804647        5.3884478468        9.5141540320
 Si        11.2643048798        8.9523297527        1.0252533443
 Si        14.5930325162        5.4499819157        4.6525617754
 Si         3.1075268517       17.4384846717       13.4843854992
 Si        18.0194596146       12.9504566890       16.0523549945
 Si         2.5898675945       20.7912238604       19.6168055221
 Si        13.7212738942       17.5926877866       19.8425016817
 Si        14.4900509357       20.3733707095       20.0348134348
 Si        13.3012788104       16.6491660815       16.8842945394
 Si        18.1780846589       18.8461130624       17.3328400503
 Si         4.5474800243       20.7405397735        2.9185068021
 Si         0.6888123264        6.8302051312       10.0701621891
 Si         8.1147665755       16.0144879421        1.2195327164
 Si         3.4666675732       18.4280475440       17.8312510582
 Si        18.1222048526       10.5894761866       20.4023683557
 Si         7.5899300369        2.0063732885       18.2851743837
 Si        19.3312229432        7.4792513255       16.7467070917
 Si        16.5402337508       14.8476617563        1.8119037491
 Si         2.5745832166        8.9478037741        8.8100686375
 Si        15.8982996770       11.6711959546       18.1395037692
 Si        18.8250439172        2.7507409194        8.8185312544
 Si         0.0827847265       10.1357441745       15.3784035162
 Si        15.7792531160       19.8756132060       12.9103297414
 Si        14.9621780768        5.1766531461        7.7082581989
 Si         3.3793724195        4.0243266834       14.4421746278
 Si        15.2968222511        2.7367938982       15.0630969704
 Si        -0.1447780922       19.4733635268       20.1979758826
 Si         1.1981594326       14.7167698510       17.1127895912
 Si         1.5564266849        6.9052981959       19.4212311437
 Si         7.2376023431        6.4376731946       18.1489340867
 Si         4.3276261572        0.9193819224        8.4522804512
 Si        16.1127198057        5.1289459161        1.9374817262
 Si        12.1972030530        3.4587510734        4.6911539988
 Si         2.5295406200       16.0188059592        4.0695703871
 Si         0.4759940603        3.1581151429       14.6622789731
 Si         4.6637177550        7.4098432196       18.7287085919
 Si        17.3066572805       17.2002145936       12.1158378214
 Si         5.3576402302       17.8065406774       15.5549819519
 Si         1.4528876819       11.1648363679        7.2552982853
 Si        14.7772219241       16.5220146005        3.4331083077
 Si         7.5532548032       19.6903270993       13.9848903112
 Si         1.7793189163        4.1422004574        0.8722121685
 Si         1.1932036222       17.4050051253       16.1463244062
 Si        16.4954215255        8.0608331031        1.2349951791
 Se         4.4037063287        8.4572288872       13.6507462120
 Se         6.3888087937        5.5988397044        6.9273723867
 Se         5.6945488057        6.0709219800       10.7444172840
 Se         8.1872222141        5.7621325406       13.0115480788
 Se         8.1201378613        3.1245698679       10.1567701342
 Se        11.4405722348        1.4102845866       12.5360478093
 Se         2.8472231149       12.4817066906       12.2858855797
 Se         6.0555686952       12.8925785726        5.2438872011
 Se         6.9262432471       10.0939952228        8.5238053059
 Se         7.3257951543       10.8822788930       12.9257442838
 Se         9.3820415172        7.0738643122        4.1869284655
 Se         9.9836552842        7.4272971753        8.7785526691
 Se        11.0000658807        9.1866617647       13.1253096985
 Se         8.5362294691       11.1644080519       17.7064065006
 Se        12.5066687471        5.3493642670       11.2306182807
 Se        15.7067526782        7.9944575056       13.6839402538
 Se         7.1498323413       16.3560969964        6.2545910597
 Se         3.7397857981       15.0953603642        8.7430422471
 Se         6.6975486502       14.9372729632       11.0394521470
 Se         9.9738640154       13.2776574412        3.3624675306
 Se         9.7478052919       13.6137443484        8.0107012807
 Se        10.8574033919       12.8423307415       11.5025395101
 Se         8.6522660190       14.4091670852       14.9575390910
 Se        16.4322032744        8.9541253964        6.2549399096
 Se        12.9406467506       11.8498727941        5.6518168789
 Se        15.2192120568       12.2243105266       12.6147234113
 Se        12.3425697905       12.1358032311       15.7342591662
 Se        13.2835805012        9.8066536238        9.5287939101
 Se         8.7763924932       17.9535642931        9.7928291280
 Se        11.8294081723       16.7055137262       12.9566768644
 Se        11.0371434292       18.1321052538        6.4659795155
 Se        12.9499654582       15.8548282217        9.2675971041
 Se        15.9170030033       12.9244587380        8.3217823238
 Cd         5.4189034878        7.8550740536        8.5814247480
 Cd         8.1895680716        5.4739196820        8.7290852857
 Cd         3.1920462321        6.3033259050       11.5400544954
 Cd         3.2731974915        7.2238173519       15.6900120404
 Cd        10.6044376162        2.6179256934       10.3138695409
 Cd         8.0738999111        0.8332982629        8.6545765481
 Cd         3.8237969242       13.5237552245        6.4575584131
 Cd         6.9501443033       10.5563396205        5.9363719609
 Cd         4.8010778188       11.2584954167       13.7575564859
 Cd         6.9500764465       12.5160138766       16.1333143161
 Cd         6.6788904478        7.2401427165        4.7045194209
 Cd         9.3134366628        8.4962280446        6.4851184081
 Cd        10.6033764042        6.3725675580       12.4325778469
 Cd         9.3277005339        5.7004487495       15.4537326097
 Cd        12.4827878759        7.3093496511        9.5593877306
 Cd        13.1735748084        7.8612722362       13.9827148183
 Cd         7.9039293923       14.7022563244        4.2419615387
 Cd         4.1061655237       14.6796222886       11.3735928930
 Cd        10.8958005523       15.3287859058       10.6863309837
 Cd         6.5766565552       22.0333222078        6.1976318079
 Cd        10.1098641835       12.0949154083        5.7400957290
 Cd         8.2241893845       13.3696170307       12.3717797991
 Cd        11.2467344418       14.9530672973       15.0356186635
 Cd        14.1170012753        9.7192616288        1.1279194430
 Cd        14.7840452903       10.7022352137        7.1854596385
 Cd        12.6239751668       11.4528839669       13.0952585953
 Cd        12.9168189218        9.8799131638       17.0514128491
 Cd        15.1448580856        9.5649169453       11.3745143112
 Cd         8.3117002299       18.5522969175        5.7377172124
 Cd        10.0516002767       18.6378470524       12.1413276257
 Cd        14.2557787299       17.8555306438       10.7710977653
 Cd         9.5370838979       16.3530507296        7.6163861190
 Cd        17.2491710979       11.7532423438       10.3014839384
