438
 i =     5800, time =    11600.000, E =    -10932.3369879552
  O         4.2663072518       16.5032859538        3.3702087669
  O         3.6098961058        8.8639973533       10.2992315867
  O        14.1965838815        1.2850601636        1.9419517130
  O        12.2434554925       15.7494626139       17.1928484090
  O         1.9351581794        7.3108970869        1.6925335673
  O        15.7745123570       16.5006478881       11.7309672181
  O         4.1232406557       11.3881363449       18.5560576035
  O        17.4250838899       15.7732093049       19.9524413880
  O        15.5713366764       13.9665083952       20.6574957668
  O         1.7236930403       15.8794268316        2.5239673410
  O        11.5167343756        7.4795841075        0.6649439244
  O        17.8730033677       13.7766108456        2.2650647284
  O        10.9282441034        6.4278130605       17.0430173775
  O         1.4442059778       14.7269393902       18.8436220993
  O        17.9580207362        3.3319587528       18.5287283242
  O        12.0245386992        2.3360269688        8.7805823340
  O        13.6373306541        1.5220518371       18.6167142543
  O        17.1327318729        6.4340331684        1.4779823697
  O        10.6248027332        0.9491457475       16.1312949941
  O        15.4665431082       19.6521155177        6.1939432819
  O         5.0390002226        8.1180113582       20.1688039367
  O         2.8953381807       18.8456725216       12.6544320880
  O         1.1746324373        8.2188136893        9.2266690923
  O        16.2780019844       16.3444820552        7.1909473885
  O        17.3095696964        3.7741353782        1.5778237703
  O         7.7405928255        6.0400266118       16.8328464508
  O        16.0599299715        1.8160279639       19.4024151398
  O        -0.1403549940       18.5125021797        2.0306105476
  O        -0.0146404949        4.3715678109       13.7817573240
  O         2.4116801514       17.5710274404       17.2798959452
  O        11.9400507789        4.1890333495        3.2573567189
  O         0.7478360810        2.6626623583        7.6789063679
  O         4.6139232000        3.0287356074       14.2194537176
  O        16.9231471050        4.6823278405       10.9684258345
  O         5.2923747397        5.1260794912        4.1317740656
  O        11.6900461958        4.2855201814        5.8233165788
  O         4.5118467101       19.1282820602        9.5177219065
  O        14.7591382145       15.7974556462       15.9843630219
  O        17.0433732748       10.9516430346       19.3391234804
  O        14.8841051814        4.9821332551       20.4223622087
  O        18.8109937493        3.3743792610        5.4368281923
  O         3.4630570925        8.1083992809        7.6384093328
  O         4.6640041558       17.1683124958       18.6322938943
  O        13.2015985276        7.8550571543       16.4420113267
  O         2.1764506920        3.4227279953       15.0127798046
  O        16.2272860243        5.0585343158        3.5340708556
  O        14.4930507816       11.8374694113        2.1899162378
  O         9.6101270369       19.0296465342       20.5940019536
  O         5.8280201802       19.7774589947        2.7286480137
  O        17.0955040207       18.6760565818       12.7905265648
  O         4.9278569563       12.6339857992       15.3531012278
  O         0.4973713514       16.0567637458       16.4962289218
  O        11.3449413090       18.0883404165        3.1295322016
  O        17.9113461662       11.0615225701        2.3947571357
  O         9.6902082224       16.4618186665        1.6732719866
  O         0.3142233039        1.7913700334       13.7381827132
  O         7.3807536780        3.1773210384        4.1772184054
  O         0.7494631997       18.7829475063        9.6056159242
  O        18.5232343368       20.8070595391        0.9975407932
  O         3.6221982275        4.6210467133        1.3749196672
  O        17.5855679093       13.9442158870       15.1127478004
  O         0.2280796655       13.4869967378       16.8890019927
  O        14.8517307778       12.2880554994       18.8152371350
  O         0.9135628472        7.5662115135       11.8776747599
  O         8.0233651602        2.7975208922       20.0334142395
  O         0.3041380704       10.9680387774       19.6327047443
  O         4.0578943353        2.3322360041        9.2531557033
  O         9.9503717055        3.5118682420       15.4257550138
  O         0.7369628805        7.5539419085       18.6314498126
  O        12.9349968069       13.5239739984       20.1965782547
  O         6.0519692094       19.2977088883       14.2490666236
  O         3.4595772273       11.8277682527        1.7646454430
  O        14.2692668032       16.5702794227       18.4548793848
  O         2.6779616017        2.7917044488       19.3223095838
  O        19.3134644082        9.7551838321       13.8718016738
  O         7.2813332369       15.3528945143        2.1004145533
  O         0.2708427647        7.5744128103        3.7364336897
  O        17.6543748560       17.8661113373       10.4027959545
  O         9.3072388447        2.3328171320       17.7347477345
  O        13.9094811422        6.1822301649        7.6940812621
  O         2.3466862966       10.4850765192        8.5541748827
  O         2.4395152783        9.1406701496        3.4035173702
  O         8.5229397597       18.7138050096       13.7057199347
  O         3.3900628336        0.8172102671        7.1319277221
  O        12.4051472473        5.9526145616       14.7857903495
  O        12.6334556123        9.7299023142       19.0911842936
  O        15.6347618393        8.2033357833       19.3638404220
  O        10.3190078167        9.7352907805        1.1834684569
  O         7.4008517273        1.7155954582       12.8074119096
  O         8.7123753094       20.5369729872        6.3258350917
  O         2.9440842870       11.5488248429        6.1560859185
  O         3.1751828712        4.9336888124       12.9010598250
  O         5.7582911349        6.0271920984       18.5365252511
  O         2.1808597320       17.1631412568        4.8407518845
  O        17.7586427389       20.3951139474       17.1322290118
  O         2.7145103286       14.3825804366       16.4589414988
  O        -0.7275853963       18.5250295227       18.8325799796
  O         1.5526126012        4.8007763670        6.2993404905
  O         3.7362347070       20.3759409029        4.3941662323
  O        15.1054985809       17.9305233479        4.1728108120
  O         9.4722717372        4.5701282234        2.1133497901
  O        12.3650323669       18.0060959383       19.5383170482
  O        14.1940242874       16.8690253426        1.8840464192
  O        17.1252450037       12.9063185813       17.5870323392
  O        13.8492462365        6.4585765368        4.3993860777
  O        17.5703646448       10.1009694057       10.6544766529
  O         5.0451908425        8.3205748179       17.3499056619
  O         1.3326917097        5.1626219431       19.5173685336
  O         0.5254280352       12.4459829128        3.3630816889
  O        18.6397741965        6.6663007766       10.0141290298
  O        15.0107292284       18.8286001264       19.5962924228
  O         1.6809645320       10.5612481161       15.8159654944
  O        -0.1140541598        3.0073153190       16.1591186116
  O        14.2984877412       19.1341909994        9.0417316155
  O         6.0256179969       11.3044005110        1.1509856353
  O         8.7674703655       18.1381024901        3.6270275237
  O        15.0618414363        3.7446213228        7.8407168864
  O         3.2021385285        6.7242500279       18.7161528167
  O         0.8282727267       10.0051089911        6.4429067299
  O        12.4592288279        1.8612364828        5.0338042746
  O        18.4300936181       17.8810992470        7.8503510407
  O         9.5251012337       18.0446581840       17.8924237171
  O        16.8374499344       19.9472404847        3.8949330698
  O        18.3584841450        4.2884123717        8.6288272240
  O        18.7752487820       13.3362742263       10.8611466617
  O         3.8748533244        5.2684588907       15.6018816472
  O         4.5150015128       17.1815843220       14.2370713027
  O        15.6892359600       10.5563883238       16.9873886795
  O        16.3842621282       15.8714428913        3.1163481345
  O        16.1902082307        1.4594357171       14.2172807406
  O        15.7501719919        4.1232525107       14.0687456765
  O         6.0286755646        1.0422248926        7.7349114927
  O         1.9492030369       17.2461958221       14.6471381472
  O         7.6791632642       17.4539566094       19.7296017963
  O         7.7991288514        7.9202596856       18.6210171957
  O        13.5095236710       18.1006625377       16.2502023364
  O         1.8537734797        2.2086284551        5.4969224541
  O        16.5545847667        3.2193630487       16.3572982880
  O        14.1499876535        3.8752228423        4.7522418105
  O        -1.0313008653       16.5092046469       12.7576437090
  O        18.0214072596        8.8345479461       20.4403910573
  O         0.2853216803       16.1307869492        9.5366467220
  O         6.5079933672        2.7159983640       17.9124298486
  O         6.6735242851       17.2002214249       15.7923586343
  O        17.1734719713       17.8001494833       16.6489273026
  O         4.4687794401        3.0191576672        6.0307487031
  O        16.2790942085        1.5265870243       11.5958215151
  O         2.7614068834        6.6548685444        4.1721024423
  O        17.8510954611       21.0648318550        8.5232979824
  O         0.2490515544       18.6887924671       16.1219193540
  O        15.8162337557        8.6156475203        2.7262807539
  O         1.9170846807        5.7573357812       10.0668867819
  O         1.4517958529       19.7643189799       19.7619365524
  O         0.7017093613       12.3216605929        7.4992923855
  O         6.8122184436        4.6892183043        2.0314791189
  O         2.8977646624       16.0985711842       12.3863278665
  O         3.4549801679       20.6127212477        1.6996379253
  O        11.4206214057        3.5867568227        0.6820056006
  O         3.7576351491       19.6958793143       18.4997329819
  O        16.4826941710        5.9146117734        8.6449449546
  O         2.8111702221       14.4095516667        4.4630638497
  O        12.7003911168        9.1068280754        2.3934230955
  O        13.2371644207        5.2036291416       17.2245502162
  O         8.3468843574       14.9741747430       19.0670768414
  O         5.9579504862        9.2443401947        4.2572362096
  O         7.6415307501       19.8066371210       18.8730213112
  O         8.2980063814        5.2987873426       -0.1498168167
  O        14.4411832280       19.2028813992       12.8307924711
  O         1.2206272248        3.5235515683        2.1235259962
  O        18.7251201203       15.6243142345        6.2773275376
  O         8.1536379352        1.4240225745       15.3328959493
  O         9.0475560328       10.5620507447        5.4250211322
  O        17.4566581086       12.5558612298        4.5915978293
  O        18.1719383519        6.7161123926       17.1782473316
  O        18.9727733407        8.9580894179       16.5015389316
  O        14.0941578382        2.3873684240       15.4989134317
  O         4.5461958058       18.8068407034       16.3198184896
  O         0.3827983012        2.6054353296       10.3185179470
  O        14.0146059395       15.4488900372        4.2340658536
  O        17.5919875421       18.0349811557        5.4495288707
  O        15.8077857863        5.4079020964        6.0429127600
  O        10.2632235767        2.1932997591       22.1075070818
  O         5.0536310209        2.8986285411        2.8686222267
  O         1.3761061270        6.9084626071       16.0791351323
  O        18.4312743299       11.4013054265       15.6991459733
  O         4.8916058609       13.6584405917        0.4529131179
 Na        13.6809578714       14.7525110677        6.6357165283
 Na        -0.0628968575       18.9240142390       13.7857590060
 Na        14.8721931319        3.6314057036       17.9169949547
 Na        14.1227554238       17.9818558997        7.1729418124
 Na         4.3308222026       13.3807451907       17.5967926230
 Na        13.0326657805       19.3716248016        3.6358940731
 Na         5.3127413283        3.9786696610       19.5622553899
 Na         2.3378799336       18.4999491487        2.6764160188
 Na         6.6877463861       16.1567716610       17.8868302381
 Na        19.1105998250       21.5365377263        3.2920910844
 Na        19.2961001731       17.1132965395        4.0443705940
 Na         3.4655223790       15.5146848081       19.7728473750
 Na        14.9703398411        5.6343840907       15.5312799166
 Na         2.1520437752       20.3891850292       10.4222469629
 Na        11.6676212824       18.9570345287       17.6579265753
 Na         7.6321222922       16.5532630480       13.5529933538
 Na        13.5212016326        3.5996678818       21.2680980226
 Na         5.6728675520        0.4632427231       11.5172554069
 Na        20.0883650370       13.6848352217        5.3354339273
 Na        11.6149874073       20.2705411794        1.0793539291
 Na        17.0969624988       14.3258219001       12.2799039533
 Na         2.1697913967        9.9577593498        1.3468131309
 Na         4.5044684159       11.0162063971       10.0165333584
 Na        12.2295171310        3.5116310422       14.7307149324
 Na        12.7315448681        4.1776941682        8.0609904349
 Na        13.7441020489        8.6408636665        4.4306955530
 Na         1.2961638014        6.3137377325       13.7814938797
 Na         2.2694492864       12.5888195576       15.2169567370
 Na         4.2699093467       18.2469065140        5.4505685983
 Na        18.5130093928        5.5823567310       19.1983244526
 Na        11.9811492450       15.5864391165        1.6259414067
 Na         1.4595544808       16.3233216034        6.9329881718
 Na         8.1353623593       20.4030892335        2.7176491514
 Na        15.5936552230        2.4221923289        3.5861982082
 Na        19.0531502833       11.6584983216       12.6431565236
 Na        10.2211541243       15.9752360012       18.1673171827
 Na        16.5951155382       18.5566562161       21.3674187472
 Na        12.7591898588       19.7604921534       14.6040145947
 Na         2.5548592013       17.5004705604       10.4656231257
 Na        14.5132798012       17.1505680693       14.1272859059
 Na        13.3445629784       14.4431138406       11.7547408462
 Na        18.2505523365        8.2285865185       12.2333836843
 Na         4.7796147181        9.6833592387        2.3531529071
 Na        15.4330722426        5.4372510164       12.2931845723
 Na        10.8217517447        9.9550125304        3.4967798830
 Na         7.1051280262        8.3678417007       16.1333477213
 Na         5.8024099073       18.8403921207        0.7429645525
 Na         7.3097327820       13.1459868535        0.3470845865
 Na        16.3951595390        8.0787512028        9.0719946223
 Na        11.3117588645       16.0947857875        4.3872822214
 Na        16.4735581576       19.3020142055        8.4007004628
 Na         4.9680925393       14.0887988967        2.6690071648
 Na        16.9660634457        2.3173107241        6.3851222178
 Na         9.2108686775       18.3543780340       15.8259776151
 Na         6.3229639904       17.3205516024        3.1609074031
 Na         4.4787007248        6.6575470523        2.5117610999
 Na        18.1671895506        5.4479367241        6.5532259923
 Na        18.2570156151       11.4075774597        6.3012101733
 Na        17.4681971236        7.2144577201        3.8923197291
 Na         2.3584652222        4.0269398321        8.7016577137
 Na        13.5932593791       14.1077633797       18.0565317098
 Na        10.1229229111        8.4696043947       17.8958508484
 Na         3.2306769279        4.2186414437        3.5857255249
 Na         1.5747004155        7.7973680968        6.2428320789
 Na        18.8862163579       14.1689087017        8.5026850436
 Na         1.8179370078       13.5274889205        1.9330858954
 Na         7.3276377361       11.0292757166        3.0959292643
 Na        19.1723604119        9.8292106865        3.7829103769
 Na         0.6610621077       15.2673578017       11.6734475957
 Na        11.7759687045       19.4346135437        8.9975403994
 Na        16.6498075895        8.4797100996       17.3446100810
 Na         1.4735452052        4.1139919453       11.7157303219
 Na        16.7102298014       14.6071221492        5.2574486519
 Na         9.3806360010        4.3566224131        4.6566620781
 Na        -0.5352758236       13.4563042593       19.4591188170
 Na         6.2489871132        3.7337445256       12.3981918930
 Na        10.3863080325        9.7750521404       10.3595682020
 Na        10.5900976002       20.1293308038        4.7175378654
 Na        19.9821931973       19.8448160317        7.4801056102
 Na        15.9432292487       15.5496219631        9.3545270127
 Na        15.9722366543        2.7477512048        9.6485749670
 Na         3.8382877607        5.3587813805        5.9745613936
 Na        16.6128681940       16.2386348865       18.0016012860
 Na        10.8332787230       11.8256005541       19.4806267989
 Na         5.5355555393        1.5712083545       16.0455348384
 Na        12.2169401377        6.5337535261        6.0669893705
 Na         9.0597907892        3.2286166621       13.2899527546
 Na        11.9628323064       22.5022046133       17.7825931194
 Na         6.9752085649       14.4716567372        7.7508040677
 Na        10.7742076094        5.5756243371       19.2503357331
 Na        12.3852368583        6.6340996615        2.7838708807
 Na         6.0732442514       17.7560027662        8.6273938466
 Na         4.0071811374       14.8716469440       14.6753795035
 Na         1.7044345496       10.8336657574       18.0436408777
 Na        13.1054963488       13.0208146880        3.6773596764
 Na        13.6328954683        1.4298111220        7.1681108798
 Na        10.5864005605        2.6749514636        7.0170800314
 Na        -0.9192589418       20.1808803106       10.8635280303
 Na        17.6476979488        3.1506361162       12.7160151868
 Na        17.8508644725        5.5396178617       15.1548103257
 Na         9.6183296631       11.3686989253       15.0757680198
 Na        -1.6465519363       16.2178339187       15.1331164646
 Na         2.8879662348        1.3778859816       14.0886971632
 Na        12.8679967673       12.1523781700        9.6077254151
 Na        19.8297924428        5.0059831492        3.7258755647
 Na        15.3279519201       13.9258899768       15.1779029042
 Na         0.2241719796       16.2147227812       20.3451020673
 Na        15.9153762236       10.9384341121        3.9483809980
 Na         3.8027270852        9.4418423575        5.5475038187
 Na         2.6295189852       11.4387457232        3.9851775133
 Na         2.0676996653        4.8291071996       17.0484628410
 Na        18.9718502966        9.6064365113        8.7397891049
 Na        16.5500187915       10.5977835100       14.9330129543
 Na         6.0103281092        4.5838021355       16.3546405629
 Na        13.6379124551        6.9724777822       18.9308689253
 Na         6.3442345540        9.7074468907       -0.3966712043
 Na         1.2285215725       12.5970410901        9.8076739677
 Na         9.1613687939        7.8260249241        1.2167808774
 Na         2.1132755236        9.4235217438       12.6060041623
 Na         5.5989152815        3.5887478352        8.2678821606
 Na        15.0170881336       19.6219124541       17.0445275107
 Na        13.7905374020       20.8129702974       10.9587925152
 Na         6.7668955718        8.4046622868       11.7874586085
 Na         4.2485779670       10.4205561902       16.5567240630
 Si         0.8515929368        3.3712294363        6.1841449784
 Si         8.1759812339        4.3294079916        1.1791363104
 Si         4.5915469550       12.0865466789        0.6333796138
 Si        17.7312017272       16.8996851821        6.6364542935
 Si        17.4407700498        2.5808512724       19.8871400835
 Si         1.8336489041        7.6673721417        3.3540653784
 Si        18.3331984312       12.4591842925        3.1956210170
 Si         3.3728462341        1.8885766687        5.8306782930
 Si         6.1769097213        3.9729436917        3.4716286656
 Si         9.5358034703        2.0544461943       16.1244493799
 Si        17.9219275896        2.5987828541       16.9761555782
 Si         9.9021535880       17.9600507159        2.5080155994
 Si        16.2364531790       18.9370285773        4.9420525004
 Si        14.3987721468       12.8339680487       20.3531376183
 Si        19.0788660878       17.5787409940        9.3946882870
 Si        10.8089412179        3.5331632256        2.1835812610
 Si         8.7420330222       18.6059236394       19.1832380558
 Si        12.3736849117        6.2943734831       16.3602132679
 Si        17.6120775789        5.3498437471        9.7147079512
 Si        11.7719290185        9.0399769888        1.0256659065
 Si        14.9030572564        5.3077452235        4.6696860183
 Si         3.0494119119       17.4110958939       13.3407411522
 Si        18.2373551905       12.9418245773       16.2007584831
 Si         2.8066722689       20.5702717435       19.6029302044
 Si        13.8947174476       17.6138253780       19.6907227598
 Si        14.5819963307       20.4243102190       19.7920227121
 Si        13.7034151227       16.6271676468       16.9003883401
 Si        18.2716642962       18.8082809017       17.2072289496
 Si         4.6761868743       20.7775066756        2.9251364955
 Si         0.8573868158        6.9738626756       10.3894599467
 Si         8.3002718872       15.8617443130        0.9600161790
 Si         3.8893865943       18.2530326565       17.7491412203
 Si        18.3268333288       10.4350383221       20.2281900710
 Si         7.8377504132        2.0872346215       18.5608022434
 Si        19.6031536182        7.4864687935       17.0507538232
 Si        16.7792547624       14.9128234776        1.7577214094
 Si         2.7302701154        8.8363990275        8.8941131824
 Si        16.2224708438       11.6488061186       18.0970435225
 Si        18.9780955789        2.8046968788        8.8934367422
 Si         0.1875392278       10.0952910291       15.4300909021
 Si        15.9249177231       19.9331335513       12.8593222252
 Si        15.2352878929        5.2678878986        7.6117314673
 Si         3.5203149115        4.2459042933       14.3625103935
 Si        15.4951334850        2.7651715875       14.9473270526
 Si        -0.1032537290       19.3294815697       20.0801921888
 Si         1.3429619922       14.6737403481       17.2598629479
 Si         1.8056331515        6.7369942622       19.5730936589
 Si         7.3789100324        6.3660873166       18.3470933935
 Si         4.5067690900        1.0008056433        8.4790031971
 Si        16.2077587924        5.1135616691        1.8465814546
 Si        12.4957708790        3.4355769571        4.7220845267
 Si         2.7877979439       15.9845983314        3.8499187728
 Si         0.5600761476        3.1252842546       14.5915942355
 Si         4.7284188437        7.3921227446       18.7830927527
 Si        17.2195959318       17.2765005492       11.9330862901
 Si         5.5410504236       18.0722161499       15.1864367402
 Si         1.7036122353       11.1322629716        7.0917650708
 Si        14.8645942470       16.5169659196        3.3533972160
 Si         7.6088784400       19.9879176673       13.9575464426
 Si         2.1970509192        3.9903899487        1.0072205162
 Si         1.3029618070       17.3404387245       16.1154397472
 Si        16.5555391606        8.0754723536        1.2898063428
 Se         4.5803337224        8.7763279270       13.6674504578
 Se         6.8837884673        6.0043824802        6.7278707835
 Se         6.1552769001        5.9616271297       10.2914119674
 Se         8.5656550237        6.3585967239       13.1424198503
 Se         8.2835386044        3.1573161817        9.6596653088
 Se        11.3240794362        1.5379968420       12.4112517604
 Se         2.9069984930       12.4753508266       12.1825129462
 Se         6.1731242838       12.9923716656        5.1524130661
 Se         7.0983763592       10.0489374780        8.6293353581
 Se         7.5376154062       11.2790040984       12.6039813676
 Se         9.8228578002        7.3313323305        4.1575437618
 Se        10.4620340630        7.4993206531        8.4678336597
 Se        11.1152898901        9.3763532919       13.4527359610
 Se         8.4794982895       11.0754056252       17.4371474533
 Se        12.6766372917        5.0443100019       11.2401527264
 Se        15.7101118982        7.9599854733       13.7619769550
 Se         6.8394088373       16.5847990704        5.8822522930
 Se         3.5221107731       15.2429951274        8.4384681676
 Se         6.8176275143       14.8222651666       11.0330447127
 Se        10.2148510277       13.6007145429        3.5423612771
 Se         9.7028619671       13.5858718866        8.2016316424
 Se        10.9357956670       12.6540524069       11.5645191454
 Se         8.8521851857       14.4117854789       15.1461007686
 Se        16.7128207323        8.8828751004        6.3004727894
 Se        12.5451513914       10.8504422968        5.9077719503
 Se        15.0709789004       12.3664173866       12.6628076896
 Se        12.3408184306       12.3484733818       15.9473305530
 Se        13.7262630025        9.5287244963        9.8927303783
 Se         8.7754104882       17.9980560750        9.9364864842
 Se        11.9235539434       16.6352930621       13.1339545062
 Se        11.2795894138       17.6880723756        6.4553913101
 Se        12.9779621947       15.4410707643        9.1960197305
 Se        15.8319026929       12.7471025116        7.9297082982
 Cd         5.6246159008        7.7415761740        8.4276084920
 Cd         8.6302793333        5.7377581782        8.7457902832
 Cd         3.8027533830        6.3340321574       11.4006667752
 Cd         3.6351188156        7.4869633378       15.7753733612
 Cd        10.8415757296        2.9436356511       10.3652565254
 Cd         8.2470075795        0.7893548391        8.4906138867
 Cd         3.9192915802       13.7235236321        6.2928223326
 Cd         6.8355585436       10.5316306593        6.0494467618
 Cd         5.1080491909       11.3842226017       13.5530410310
 Cd         7.0355474606       12.5048429331       15.9037842507
 Cd         7.2321117658        7.6410967446        4.6786122051
 Cd        10.0701820379        8.8999280528        6.3798595864
 Cd        11.1764388195        6.5595698298       12.6301906714
 Cd         9.3875162740        5.8179373162       15.5106764329
 Cd        12.9531105695        7.1466530480        9.6308094261
 Cd        13.1814383630        8.3096005716       14.1947516933
 Cd         8.1590418828       14.9878282542        4.1106084176
 Cd         4.2014308197       14.4321077214       10.9753109408
 Cd         8.8902442709       13.8417105989       12.6287334594
 Cd         6.6672805979       21.5352862546        5.9163088254
 Cd         9.7619669218       12.5051946066        5.8943033686
 Cd         7.8733896862       12.2756509444        9.9470218106
 Cd        11.4786818958       14.9115825267       15.2197330962
 Cd        14.3602232505        9.8362328711        1.2292899329
 Cd        14.7671461989       10.3408583542        7.2460297365
 Cd        12.6089874087       11.4945940703       13.4156662192
 Cd        13.2331326373       10.0904967263       16.9680645665
 Cd        15.6264699227        9.7858634625       11.8443007711
 Cd         8.7636485120       18.2440135242        5.9560505577
 Cd        10.3023055138       18.5702003978       12.0872154417
 Cd        13.9177303350       17.7999845939       10.6256131839
 Cd        10.4875630756       16.2690784127        8.5988250456
 Cd        17.1484361737       12.0944634247       10.0934685239
