438
 i =     8900, time =    17800.000, E =    -10932.3618484539
  O         4.0143962578       16.3261530851        3.1188216832
  O         3.3983352808        8.8000616406       10.4195959352
  O        13.9387053967        1.0803034146        1.8945028104
  O        12.1075898189       15.6186725930       16.9642623595
  O         1.4934530072        7.5191494110        1.5599336099
  O        15.7333233904       16.3775049571       12.0138212101
  O         3.5617455975       11.4459290542       18.9400462200
  O        17.5498757081       15.2534830149       19.7347993883
  O        15.4067737751       14.1406667952       20.8080272384
  O         1.5366286824       15.6706738894        2.5281273232
  O        11.0470513924        7.2963651889        0.3722296184
  O        17.8387585208       13.5388663333        2.2243713128
  O        10.6007633395        6.7059536878       16.4583820550
  O         1.4029248907       14.6185159567       18.8650652763
  O        17.7999294609        3.0497304984       18.4589043193
  O        12.2035553831        1.9482073491        8.7552338309
  O        13.4432481012        1.3305868938       18.6466283200
  O        16.9524270772        6.3610773868        1.4218117303
  O        10.7559113542        0.5597895220       15.9573729596
  O        15.2578273100       19.2983924339        6.1215949432
  O         4.7458264248        8.2869416473       20.2426876938
  O         3.0400510046       18.8472658107       12.7152468178
  O         1.1561560385        8.0908561810        9.1594311438
  O        16.3253705126       16.4514279232        7.2937621702
  O        17.1210438015        3.7015782950        1.5019453678
  O         7.2990892816        5.9430481478       16.7585189096
  O        15.6814765073        1.9846643092       19.5841928307
  O        -0.0592894672       18.4829227758        1.8517470316
  O        -0.2172269415        4.2422829307       13.9521589259
  O         2.1149395097       17.8678362950       17.4232037516
  O        11.6348198787        3.8159532351        3.2299152850
  O         0.5814862820        2.6857524793        7.5653373705
  O         4.5576353338        2.5859702236       14.7538539428
  O        16.7763780633        4.5712060160       10.8300421430
  O         5.4257319106        5.1031438002        3.9066319331
  O        11.4171255043        3.9227810248        5.8292053472
  O         4.0735809293       18.7799573072        9.3237531363
  O        14.5668821698       15.5569937455       15.8420320687
  O        17.0400075437       11.2686692719       19.3803830938
  O        14.6995989597        4.9039407137       20.3679682647
  O        18.7374885318        3.8016625492        5.4694124894
  O         3.4685082585        8.2624100673        7.8212389913
  O         4.3158838498       17.4090365528       18.9349079064
  O        12.9759097497        7.8108902764       16.1000290815
  O         1.9255986515        3.0116817518       15.1930032509
  O        15.9959026663        4.8958741816        3.4745944522
  O        14.3843680778       11.7247053723        1.8719511874
  O         9.3412367072       18.8917421009       20.5033776517
  O         5.6882551381       19.5339636972        2.7809923903
  O        17.0785494500       18.7183633308       12.4723923012
  O         5.0541354141       12.3546314890       15.5957298980
  O         0.6347692164       15.8555528337       16.3887796113
  O        11.2173564344       18.2102389031        2.9618493269
  O        17.6500515111       10.9245034917        2.4936236196
  O         9.6119571106       16.3516407139        1.8939674164
  O         0.3035268369        1.6402544651       13.5877595151
  O         7.1096174349        2.9023451043        4.0314845354
  O         0.5566819267       18.3291312848       10.1499706511
  O        18.1860131907       20.6733957545        1.0435101662
  O         3.3848529902        4.6893270347        1.5415195190
  O        17.7146999379       13.7030201968       14.8004437355
  O         0.1131728826       13.2821646928       16.8952468893
  O        14.9042442428       12.6704946279       18.7173041833
  O         0.5575315200        7.3894628796       11.7036698025
  O         8.1661818097        2.5505479351       19.7606056130
  O         0.1899209592       10.9095172387       19.8326572278
  O         3.9592828945        2.1342598554        9.3162992942
  O         9.9499167959        3.2494605630       15.5118857114
  O         0.7124066350        7.6255921877       18.3737256367
  O        12.8706039531       13.6486546498       20.1061298240
  O         6.4883133041       18.8822799348       15.0911796951
  O         3.5204729302       12.2943350397        2.0064191297
  O        14.3424355942       16.4850758193       18.3166773822
  O         2.3139059810        2.7945895115       19.4120841414
  O        19.4449385478        9.7495607894       13.7275200770
  O         7.2506260459       15.2653625614        2.2537027383
  O         0.4250798904        7.5521213861        4.1017380928
  O        17.4958489365       17.2976799075       10.2628878562
  O         8.9254508289        1.8122665264       17.4278011495
  O        13.6216697427        6.0987316513        7.6621575329
  O         2.1370467459       10.5505260966        8.7381635517
  O         2.1842230557        9.3924506533        3.3386457861
  O         8.6403014988       18.2119531373       13.6811418409
  O         3.1889599895        0.7969000902        7.1255899156
  O        12.3956582573        5.7567606767       14.5671170486
  O        12.3509614489        9.6730257473       19.3614020415
  O        15.3290767615        8.0290271005       19.3489152592
  O        10.0439076234        9.6220089683        1.4331129442
  O         7.0561217603        0.7766256074       12.6226266370
  O         8.4418014260       20.3425454135        6.4882925558
  O         2.8118292355       11.4610957008        6.3192412228
  O         3.0902403985        4.4479393957       13.2155566856
  O         5.6057914809        6.1597970653       18.8438460767
  O         2.1149725222       17.1838718808        4.7798937021
  O        17.5720459023       20.1410057598       17.0449536356
  O         2.6223654280       14.2405867480       16.3825908660
  O        -0.8693137448       18.4698507275       18.7356219149
  O         1.8604327460        4.9155915329        6.3080135704
  O         3.6614113102       20.3166437852        4.3995682127
  O        15.3138109003       17.9276618263        3.8557297948
  O         9.3507229961        4.3280090561        1.9263354447
  O        12.5001686465       17.9517262497       19.5969201452
  O        14.3418703781       16.7077125998        1.7056913728
  O        16.9561107381       12.8488382707       17.2038736598
  O        13.6331259363        6.1077497017        4.1240327451
  O        17.0151820759        9.6166823446       10.2770905604
  O         4.8578974497        8.3569552413       17.4392143267
  O         1.1247536567        5.2278031500       19.4644488211
  O         0.2135700772       12.2297640086        3.7441269949
  O        18.5406578171        6.4564573190        9.6095744077
  O        15.0215092022       18.6726863001       19.5126353730
  O         1.5556147249       10.6391397255       15.7999338898
  O        -0.4936102749        2.8085076129       16.0260444381
  O        14.3831696220       18.9604130970        9.1999048216
  O         5.8286733515       11.5278762127        1.2250956323
  O         8.5870707682       18.3460500500        3.4947081310
  O        14.7746419084        3.5202835005        7.7421500434
  O         3.0929020211        6.7633875622       18.6780954337
  O         0.5811224588        9.9149940144        6.6417155241
  O        12.2279829850        1.5328854450        4.8831708841
  O        18.5961406592       17.8015130244        7.9302896334
  O         9.3766442496       17.8140495708       17.8768265397
  O        16.8815372559       20.1875269725        4.0457679409
  O        18.1197049850        4.2060216774        8.4692491214
  O        18.5404027375       13.1103043428       11.0679468891
  O         3.6962098699        4.7699246324       15.9603910207
  O         4.6044413572       17.1665913654       14.1854638890
  O        15.5664088362       10.5394147924       17.3175650874
  O        16.6146105590       15.9036495851        2.9535470651
  O        16.2368337865        1.2296201362       14.2256638714
  O        15.8031634005        4.0036495698       14.0504848310
  O         5.7151300616        0.7963450172        7.7062809874
  O         1.9332696603       17.4559258222       14.6671514025
  O         7.5631367765       17.0503063214       19.7301535437
  O         7.7062370661        7.7792334855       18.7437831186
  O        13.3837935048       17.9969223610       16.2360695222
  O         1.7524270565        2.4169456766        5.3642239063
  O        16.3387969930        2.9667872283       16.3450367760
  O        13.8540958596        3.6167227548        4.5838735754
  O        -1.1167367951       16.3413598819       12.9065143571
  O        17.6237244583        8.8638581397       20.3048111532
  O         0.2988331909       15.7887291198        9.5139217755
  O         6.2644477579        2.4534699013       18.0109831306
  O         6.3105213020       16.3165297711       15.9753632223
  O        16.8895348677       17.6852389104       16.6713958960
  O         4.2996587976        2.8930910265        6.0556850540
  O        15.9971453682        1.5980657143       11.5083338903
  O         2.9780390569        6.7246309872        3.8085433357
  O        17.8159131766       20.9882549560        8.5922907270
  O         0.0164133232       18.4259037646       16.0574126687
  O        15.5883582357        8.3742073700        2.5957426585
  O         1.7055048059        5.5704768869       10.1443687820
  O         1.2162205975       19.9247498827       19.3928307707
  O         0.6242285206       12.4371593236        7.6545831728
  O         6.7063061348        4.2983631862        1.7468415010
  O         2.9013512121       16.0860352123       12.5245665019
  O         3.3261883298       20.2648113105        1.7160738369
  O        11.3043945103        3.3671059527        0.5746151627
  O         3.5316443330       19.9836184729       18.4675550746
  O        16.2174449842        5.9309169461        8.4818959909
  O         2.5766338972       14.5555516095        4.8778787796
  O        12.4627658361        8.5055486993        2.2433085911
  O        12.8139927499        5.3886305098       17.3288228227
  O         8.7862094652       14.5449245474       19.4198189537
  O         6.0427782007        9.1886488864        4.4846430540
  O         7.5267341876       19.6160318586       19.0315492455
  O         8.0705295464        5.2065856127       -0.2641831280
  O        14.4984908548       19.1883097351       12.9516225364
  O         0.9239005153        3.8233848164        2.2916968620
  O        18.6303310017       15.5789671400        6.1597500713
  O         8.4195820730        1.2401197068       14.7903811036
  O         9.1271998046       10.3524628287        5.4036099169
  O        17.0529149900       12.4421462848        4.5540730402
  O        18.0293870817        6.5893990290       17.0006439796
  O        18.8903153518        8.8759452853       16.3088764014
  O        14.0290280609        2.3837210330       15.3817019671
  O         4.5044816619       18.4934547313       16.5094212474
  O         0.2385124577        2.6430498343       10.2255637574
  O        14.0897567874       15.4138572207        4.1209198480
  O        17.5676711250       17.9955665410        5.4830160465
  O        15.5606890096        5.3549195235        5.9860443765
  O        10.0149587047        1.8763480160       22.0452787074
  O         4.8784932430        2.6991944713        2.8068916056
  O         1.1925172239        6.6897035138       15.8202325873
  O        18.4062153845       11.2073234179       15.6826967352
  O         4.9074174077       13.8103349049        0.1689370492
 Na        13.3860226478       14.3426253172        6.3225558760
 Na        -1.0109363013       19.2348944599       14.2180190649
 Na        14.2637978199        3.4983634802       17.6456795080
 Na        14.3266808928       17.5135537452        7.1662034639
 Na         4.2463960910       13.2683410730       17.4544840206
 Na        13.2075350053       19.1873564289        3.6293161616
 Na         4.9360175527        4.0107821258       19.4581820728
 Na         2.0898688300       18.2825794763        2.7229611202
 Na         5.9275023884       15.9330130482       18.3064608007
 Na        18.9066806896       21.4894408356        3.3437181692
 Na        19.3407549370       17.1752235575        4.0859989544
 Na         3.3794470583       15.5730512876       20.0721755486
 Na        14.5471383948        5.8093889132       15.3139706803
 Na         2.1562131334       20.2547274709       10.8829566311
 Na        11.7388334689       18.3647311512       17.5830847549
 Na         7.2865537461       16.3626311716       13.1924603741
 Na        13.3586816164        3.2624864506       20.9870899142
 Na         5.2310228167        0.0232647617       11.3636394029
 Na        19.8366214115       13.6206983663        5.6496886358
 Na        11.6450147893       19.7143150161        1.1964809955
 Na        17.0529096207       14.3890471357       12.4423739578
 Na         2.3741685540       10.0543671051        1.2414508196
 Na         4.5970662632       10.8942926615       10.2111029659
 Na        12.0852462228        3.4594216057       14.4864866380
 Na        12.5119997024        3.8876933459        7.9414729960
 Na        14.0254919526        8.2864663433        4.5765105517
 Na         0.9521007591        6.1982619735       13.5897056221
 Na         2.2520969394       12.6179232763       15.1411082322
 Na         4.1240866433       17.9746926114        5.2201528944
 Na        18.2374702368        5.4534022489       18.9615445109
 Na        11.5844447398       15.7230755752        0.6342970349
 Na         1.4402264008       16.0582700922        6.6864413939
 Na         7.9380822790       20.4679631609        2.4249288785
 Na        15.1281865742        2.0193779708        3.5828666215
 Na        18.7818293772       11.9764730350       13.0579516442
 Na         9.1554325128       15.5706683987       17.2838672365
 Na        16.5270461480       18.6837302437       21.3589124807
 Na        12.7634774279       19.5005500283       14.7086425526
 Na         2.6199811531       17.2427570492       10.1574274710
 Na        14.5977664336       17.1036776068       14.1351866904
 Na        13.6186062413       14.5814582916       11.8277753511
 Na        18.2551255436        8.7785433757       11.8852153652
 Na         4.8257680182        9.6872727463        2.6370657662
 Na        15.0110454096        4.9653314459       12.1316152009
 Na        10.5711516843        9.7628642713        3.6878346591
 Na         6.7395070884        8.2350768826       15.9554632846
 Na         5.4431911833       18.9336919032        0.6435181532
 Na         7.2508329122       13.0125743433        0.1178912360
 Na        15.8036050715        8.0668515697        8.8963279771
 Na        11.5456584800       16.0695753262        4.1091640966
 Na        16.4633383823       19.1106191222        8.5936068896
 Na         5.1194990257       14.2198699407        2.7528719826
 Na        16.9039435349        2.7368149788        6.3516843540
 Na         9.9665838414       17.9418764530       15.3319887434
 Na         6.2742876507       17.1293853486        3.1652540553
 Na         4.4454489723        6.4642398625        2.4225899433
 Na        17.9239254157        5.8465081698        6.2794759421
 Na        17.7563160165       11.3208670450        6.5734497069
 Na        17.6422008865        8.4056917433        3.7504899953
 Na         2.3064609561        3.7042131463        8.9635341979
 Na        12.8791565972       13.6408990480       17.8151739343
 Na         9.9130675593        8.2856532757       17.9748369566
 Na         2.7571683912        4.2486496428        3.6872189621
 Na         1.4723840617        7.6296170385        6.4760464379
 Na        18.6653210614       14.0384272641        8.7914259621
 Na         1.5424596028       13.4632410315        2.0426873582
 Na         7.3713861000       11.0668189299        3.0177187703
 Na        19.7092892155       10.0420977437        4.3239366179
 Na         0.5761804221       15.1148986004       11.9282962777
 Na        11.7789413030       19.1712844434        9.0248030885
 Na        16.7360670196        8.3981256855       17.7603248511
 Na         1.0505693770        4.0109542712       11.8965856872
 Na        16.8714086111       14.5328696694        5.4084011006
 Na         9.3036961044        4.2220235041        4.6005411417
 Na        -0.7308363642       13.3894902033       19.0879554258
 Na         5.3470376285        3.1802334555       12.7364917773
 Na         9.9747834961        9.7709566850       10.1357927309
 Na        10.1459065156       19.8528497327        4.3011155870
 Na        19.9099906333       19.7094218656        7.4980834363
 Na        15.9371788312       15.6104523523        9.4179910028
 Na        15.9244477787        2.5718262277        9.6269914157
 Na         4.0331289383        5.5106031855        5.7938386924
 Na        16.3771729322       15.6552940236       17.9566371550
 Na        10.8949093067       12.0455973271       20.1961245605
 Na         5.3347806944        1.2574336524       16.2826490650
 Na        12.1559426438        6.1298538394        6.0393889690
 Na         8.5636962332        2.7181129298       12.8681941689
 Na        11.2946574995       21.7133249101       17.8819467146
 Na         6.8324971323       13.7210454992        8.2792872327
 Na        10.5918841540        5.3153652049       18.7058124208
 Na        12.1207329127        6.2078860333        2.5447892943
 Na         5.5990819132       17.2423144864        8.6171444414
 Na         4.5483259739       14.7888095812       14.8968408000
 Na         1.3663330128       11.2274978615       17.9781256645
 Na        13.1726573866       13.2126480940        3.5870498616
 Na        13.9176091012        1.2422575761        7.2458839745
 Na        10.5588850014        1.9805050892        7.1188186448
 Na        -0.8758157444       20.0646492090       10.9701800102
 Na        17.6234773415        3.2430271482       12.6457129433
 Na        17.5628677964        5.4955331545       15.0295849351
 Na        10.0180291459       11.1901555014       14.6088877702
 Na        -1.4255135120       15.9807335854       15.1028318230
 Na         2.5490089696        0.8855680385       14.4060526157
 Na        12.3228128659       12.6345435314        9.0669380195
 Na        19.0615072106        5.1784057141        3.5159403356
 Na        15.3372656024       13.6039148094       15.2392554699
 Na         0.1418920956       16.1970973468       20.0500588558
 Na        15.3595361326       10.9004158516        3.9120930537
 Na         3.8718113766        9.3948213727        5.7287267013
 Na         2.5792062931       11.7588690516        4.0305611858
 Na         1.3971794281        4.0476578461       17.3570744120
 Na        18.5626154323        9.3257687845        8.6462654893
 Na        16.1083304976       10.1797725948       15.2061576604
 Na         5.9272364782        4.1952892387       16.3495375552
 Na        13.5113654093        6.7168538486       19.1054063244
 Na         6.4519670531        9.8420477199       -0.3458718971
 Na         1.3150666508       12.3304411588        9.9022841251
 Na         8.7431208714        7.5193189415        1.3446941412
 Na         1.8974017762        9.3185736930       12.5967307121
 Na         5.4273015256        3.4409184429        8.2400753953
 Na        14.8747484853       19.4919075068       16.9767711550
 Na        13.9198230853       20.9643435072       10.5623118180
 Na         7.2061463861        7.7619357009       11.9029982907
 Na         3.9890652816       10.3751017045       16.7393526153
 Si         0.8120241301        3.6303293892        6.1891486130
 Si         8.0728790332        4.0382364742        0.8912661512
 Si         4.4655374275       12.2594761119        0.6797279062
 Si        17.7164168127       16.8597634095        6.7117142815
 Si        17.2183848735        2.4669117100       19.9012103062
 Si         1.8517073797        7.7566121232        3.2962710964
 Si        18.0586089403       12.3170128490        3.3273202550
 Si         3.2311569032        1.7595638717        5.8064232913
 Si         5.9640868912        3.8394234564        3.2709309583
 Si         9.5664077032        1.7176136557       15.8715010070
 Si        17.7076235361        2.3943508739       16.9725337875
 Si         9.7147914566       17.9227524403        2.4501325490
 Si        16.2495351936       18.8958331410        4.9419643238
 Si        14.3808463232       13.0494216219       20.3217143862
 Si        19.0064964000       17.2423443261        9.4971184595
 Si        10.5565977086        3.2079003646        2.0083076146
 Si         8.5641801053       18.3014173616       19.1510756161
 Si        12.2122575626        6.3378383904       16.1465570472
 Si        17.3528317115        5.2270812860        9.5620103045
 Si        11.3265046092        8.7201130164        0.9999188187
 Si        14.6766371060        5.0745824289        4.5462551760
 Si         3.1157458041       17.4293600802       13.4063935391
 Si        18.1942578588       12.8008861017       16.0339004047
 Si         2.6047034362       20.6108991893       19.6560071854
 Si        13.9716953451       17.4136403786       19.6235127145
 Si        14.3935789045       20.2847384371       19.7654597165
 Si        13.5532668519       16.4318334458       16.7190557124
 Si        18.0867347703       18.5828422371       17.1587951499
 Si         4.4454791572       20.5163321519        2.9244332616
 Si         0.7435925501        6.8070600145       10.2084839975
 Si         8.2814959019       15.6860617200        1.0957404360
 Si         3.6322624748       18.3707749172       17.8598353908
 Si        18.1234345261       10.4734543213       20.3585648566
 Si         7.6453015174        1.7614121113       18.4074623359
 Si        19.4283174029        7.3710859249       16.8555155481
 Si        16.8933114894       14.7265562630        1.6782928113
 Si         2.6236395125        8.8754673983        9.0173880333
 Si        16.1053705026       11.7273662905       18.0985534170
 Si        18.8941880003        2.8077157829        8.8309365327
 Si         0.1333538400       10.0537331560       15.2809200860
 Si        15.8647133155       19.9072657242       12.7168715388
 Si        14.9797520763        5.1190937791        7.5525472788
 Si         3.4058364804        3.7996645299       14.7230312331
 Si        15.5180582885        2.6376282547       14.8862366658
 Si        -0.2071484423       19.3571738166       19.9424577365
 Si         1.3029809134       14.4943510960       17.2537067290
 Si         1.6658284164        6.8136184703       19.4939505035
 Si         7.1621232044        6.3688409293       18.3572506555
 Si         4.2728900767        0.7687671520        8.4733905643
 Si        16.0482494602        5.0676657454        1.7606004991
 Si        12.2383224432        3.1401384617        4.6637626202
 Si         2.5680803043       15.8687015151        3.8313535385
 Si         0.4147971620        2.9095893648       14.5987255159
 Si         4.5747160841        7.5255529700       18.8492003620
 Si        17.1645242122       17.1138030012       11.9962665380
 Si         5.5337399859       17.6294140031       15.4639907425
 Si         1.4908945383       11.1102730627        7.2640701945
 Si        14.9867268308       16.4074067182        3.2135645422
 Si         7.6311817501       19.4257162239       13.9609695715
 Si         1.9464600685        4.1751343458        1.1225953608
 Si         1.2729909427       17.3382570801       16.1392721414
 Si        16.3070451583        7.9289844036        1.2376092424
 Se         4.2549871112        8.1901869304       13.8547887067
 Se         6.5651430819        5.8788980195        6.7937958446
 Se         5.8022511422        5.6905479107       10.4334627529
 Se         8.1487087453        5.4980899261       13.1947208169
 Se         8.4426223849        3.0425268900        9.7667452181
 Se        11.2312707800        1.1055085837       12.4729409184
 Se         2.8870630344       12.2293306407       12.3526408513
 Se         5.9629744373       12.8017202638        5.0853084876
 Se         6.8510874111       10.1460783232        8.5592191284
 Se         7.3505207402       10.2459785922       13.3527034114
 Se         9.5780477437        6.9435863001        4.2075587104
 Se        10.0833032820        7.2676522814        8.5947372068
 Se        10.9641820701        8.8445757141       12.9227433977
 Se         8.8665323793       11.2694405810       17.5973902647
 Se        12.3586563242        4.9329631303       11.1261922870
 Se        15.7310292276        7.7671201536       13.4616839854
 Se         6.6915528511       16.2955423651        6.1013807542
 Se         3.7281234546       14.9102360136        8.6620671754
 Se         7.0096541166       14.4940368425       11.1461321228
 Se        10.2513505355       13.3694466262        3.6176078070
 Se         9.6329151659       13.3395773041        8.1496805333
 Se        10.7055040859       12.2763515325       11.5564537021
 Se         8.9196349454       14.3232740628       14.8171020863
 Se        16.3931401772        8.9269745699        6.2225561272
 Se        12.6837882344       11.0765780264        5.7643729965
 Se        15.1420714087       12.1385206036       12.7896671492
 Se        12.7946723021       11.8545757635       15.6017655753
 Se        13.3231044571        9.6456824968        9.8362491991
 Se         8.4252101494       17.5497456741        9.6949286619
 Se        11.9257887027       16.4268879268       13.0604254584
 Se        11.0641460021       17.6624222170        6.3893194475
 Se        12.9975512612       15.3487787963        9.1491310754
 Se        15.8625238691       12.9769015526        8.0181145677
 Cd         5.6582723166        7.6815327044        8.4953210282
 Cd         8.5701834098        5.2296728558        8.2666422411
 Cd         3.7993032943        6.6466958907       11.6275160528
 Cd         3.3588931998        6.9332438977       16.0062831842
 Cd        11.0297577211        2.6346323433       10.3800590217
 Cd         7.7988632555        0.7746561748        8.5915362010
 Cd         3.8358030468       13.4550644406        6.4205886064
 Cd         6.9157967873       10.6629781295        6.0539344885
 Cd         4.8384749112       10.8366160376       13.8367102820
 Cd         7.2193387307       12.1223651922       15.8837174453
 Cd         7.0119058222        7.3082416277        4.6841951150
 Cd         9.2713563896        8.5805759800        6.4655131151
 Cd        10.6540452785        6.0326624844       12.8397303995
 Cd         8.9879401896        5.2942431954       15.6970228674
 Cd        12.5758019709        7.2103670273        9.5577791743
 Cd        13.2810414171        7.9759666350       13.6684806870
 Cd         7.9757516863       14.5598055089        4.2866017486
 Cd         4.1097087454       14.4891230014       11.4903789153
 Cd        10.0467554206       14.8051552175       12.2970843862
 Cd         6.6303153656       21.3115159787        5.8830933282
 Cd        10.2888334509       12.1423384616        6.0410783059
 Cd         7.9190676189       12.1474155544       11.7982208988
 Cd        11.6167840360       14.6717150404       15.1100173170
 Cd        14.1450148408        9.6152652386        1.2316743941
 Cd        14.6397825698       10.5692853485        7.5388517580
 Cd        12.5966869556       11.0910906413       13.0435263302
 Cd        13.0586417692        9.7956604750       17.2857154617
 Cd        15.2556736649        9.7222058557       11.6502848920
 Cd         8.4941883181       17.9793712557        5.8096012772
 Cd         9.5935635924       18.7238373341       11.6736973897
 Cd        14.0760470573       17.5668380055       10.6506771206
 Cd        10.3671891038       15.7543489765        7.9333219088
 Cd        17.0210255489       11.7547307940       10.1704271190
