438
 i =     8300, time =    16600.000, E =    -10932.3579356708
  O         4.2520326384       16.4309624753        3.3833345584
  O         3.6569322120        9.1855773454       10.1457412031
  O        14.0059720285        1.1792645386        1.9231199528
  O        12.1723326179       15.8847173485       17.1547818251
  O         1.8210652453        7.5418082297        1.5078966158
  O        15.6914248889       16.3296928517       11.9511054748
  O         3.7408951648       11.4277589625       18.9105411208
  O        17.7460054116       15.6406607741       19.9458004314
  O        15.6994768604       14.1857412073       20.3952138308
  O         1.8079738584       16.2855778307        2.5659814731
  O        11.6102589829        7.4475749923        0.3522106920
  O        18.1097327523       13.6168633573        2.1414445823
  O        10.6216402544        6.4921904932       16.7335302953
  O         1.3336395184       14.7191078538       18.6439393808
  O        18.0549994699        3.0941050366       18.3856197358
  O        12.1255892575        1.9790565991        8.6952899765
  O        13.3491792279        1.4912177148       18.6605000907
  O        16.7724707869        6.5807153828        1.5834840008
  O        10.7634387514        0.9712462096       16.3300424533
  O        15.4325101700       19.6801011255        6.1258182887
  O         4.9717411068        8.2204596752       20.2330831268
  O         2.9276712489       18.8335586708       12.4508685976
  O         1.2491208518        8.2352630423        9.1424648197
  O        16.2724039304       16.3289131660        7.1432967823
  O        16.9635532275        3.9538858926        1.2266295120
  O         7.4258871471        5.9040937763       16.8648742309
  O        15.8705638395        1.7722009113       19.4029514587
  O        -0.2099835283       18.5986523612        2.0421353829
  O        -0.2948962799        4.4201769938       13.6672184171
  O         2.3143642438       17.5279147156       17.3976360229
  O        11.8572854116        3.6768647214        3.2186744688
  O         0.6728820634        2.6674427372        7.6217699137
  O         4.4735969842        2.6849029140       14.4733151449
  O        16.9451883322        4.7519392335       10.7330841274
  O         5.5607443697        5.3519988917        3.8384747788
  O        11.4252271157        3.9279072943        5.8700374603
  O         4.1030694911       19.0718502377        9.4854884151
  O        14.6031651918       15.4541763224       15.9195374411
  O        17.0812117587       11.1001932284       19.2409628208
  O        14.5004088916        5.1029052798       20.4633103339
  O        18.6692783119        3.4846093984        5.3935366220
  O         3.5150048710        8.3874614123        7.6691322546
  O         4.4372972760       17.3809813642       18.9665337206
  O        12.9121815809        7.8992297546       16.3978108094
  O         1.9078272728        3.2820942912       14.8704538568
  O        15.8123419978        4.7904907184        3.4232621615
  O        14.5702022608       12.0623428537        2.0217553104
  O         9.5727274916       18.8747560739       20.3463316345
  O         5.7589693742       19.6798511026        2.8670326634
  O        16.9966216001       18.5370250112       13.0213553168
  O         5.0401405117       12.3506159355       15.1848664329
  O         0.4813302409       15.9802943829       16.2013867134
  O        11.2287129178       18.3142627811        3.0287779291
  O        17.8633532180       10.9478858563        2.5252584027
  O         9.6406109603       16.4961092792        1.8808360663
  O         0.2247349776        1.8378054900       13.5768552524
  O         7.2784394913        3.0589403085        4.1667895832
  O         0.6092057402       18.6007241960        9.9419291488
  O        18.1377331487       20.9146340284        1.3091062211
  O         3.4370903234        4.7225396177        1.4136133400
  O        17.5074619532       13.5341864585       14.7958603083
  O         0.0997848787       13.4507991772       16.7301120876
  O        14.9226616457       12.4240680341       18.7641694061
  O         0.8517270864        7.5740056766       11.7027560993
  O         8.2533736688        2.5087733362       19.8989868845
  O         0.2282426686       10.9600689122       19.8579645516
  O         3.7701091614        2.2637274876        9.2481663547
  O        10.0220324098        3.3424569706       15.1947821801
  O         0.6669311603        7.5877574931       18.5398862122
  O        12.9641967693       13.7082287283       20.0162372373
  O         6.0833080946       19.1702818329       14.6814130618
  O         3.5054991090       12.9234115773        1.7096049462
  O        14.3573282430       16.4706107889       18.4031228048
  O         2.4065251379        2.9019884435       19.2322744376
  O        19.5822963400        9.9213641606       13.9287597838
  O         7.1827645580       15.4040480713        2.1930008552
  O         0.3278115510        7.7506063763        3.8324051951
  O        17.6151817567       17.6193606046       10.5438967064
  O         8.7391487150        2.1466835122       17.3204372074
  O        13.7627840844        6.2934307747        7.7632645843
  O         2.2781764822       10.7830908259        8.6270041085
  O         2.4996756187        9.3060408801        3.3933730221
  O         8.2579757316       18.3075299786       13.4898755899
  O         3.3739570860        0.6479564923        7.0847694575
  O        12.3584204986        6.0071609695       14.6365544052
  O        12.4423198195       10.0239909975       19.1937610816
  O        15.5985408576        8.1040164040       19.0064957665
  O        10.0732312720        9.5522301312        1.1455040902
  O         7.0014425500        1.2263265829       12.5295202882
  O         8.4810162181       20.3736679209        6.4342301220
  O         2.4899173041       11.7302469200        6.0101992077
  O         3.2012526269        4.9617826697       13.2961217002
  O         5.7810133437        6.0865694349       18.9398257068
  O         2.2306227505       17.3569588082        4.9306819557
  O        17.6055881369       20.2257736157       17.0348147051
  O         2.5583951098       14.3470657457       16.1907570765
  O        -0.8924692771       18.7399554772       18.9901342415
  O         1.3820754476        5.0071773470        6.1981724370
  O         3.7253186457       20.2012201803        4.4792355559
  O        15.3747075595       17.8850018125        4.0742740868
  O         9.4144641366        4.2947508968        2.1356544278
  O        12.4827863338       17.9743270382       19.5990535291
  O        14.4377949823       16.9453584540        1.8080291429
  O        17.0247034396       12.9826346785       17.3272328086
  O        13.8166992946        6.4140660354        4.2511229142
  O        17.2241794007        9.7903793243       10.5550900909
  O         4.9182632048        8.2224849086       17.4420784435
  O         1.2733295310        5.1917840054       19.4217457024
  O         0.4325358835       12.5090274639        3.6594630144
  O        18.5702158799        6.7542354283        9.6578886146
  O        15.0409772849       18.7977492011       19.4722454490
  O         1.7258052439       10.7442936047       16.1601170839
  O        -0.4384290504        3.0575416808       15.9659158481
  O        14.1280155613       19.0171674449        9.1668258735
  O         5.8143251898       11.5180743104        1.3163265734
  O         8.6206435358       18.5045201465        3.4375193883
  O        15.0083729064        3.7291535223        8.0851451004
  O         3.2516011207        6.6444684477       18.6116034623
  O         0.5946547589        9.9420794312        6.7592799538
  O        12.4300219755        1.7027308874        5.1183147160
  O        18.4748580401       17.5734063144        8.0082507144
  O         9.2998259270       17.9044415673       17.7977268782
  O        16.9595617640       20.0999538973        3.9222836082
  O        18.5013022428        4.3717105305        8.5825497822
  O        18.6189488554       13.1945000338       10.9546228828
  O         4.0014490349        4.8259040900       15.9607905940
  O         4.4285263335       17.1965951090       14.1756214494
  O        15.5536804718       10.6773758220       16.9421636237
  O        16.5862447663       15.7125518562        2.9668438261
  O        16.1437608234        1.3644775328       14.2384962396
  O        15.7041358033        4.1151866757       14.2168190892
  O         5.8977761185        1.1482802873        7.9313586789
  O         1.8423917966       17.6952478397       14.6328971053
  O         7.5901581390       17.2693215517       19.9098625243
  O         7.9682787963        7.6929935989       18.8183578774
  O        13.6307677570       17.9416594842       16.0023818484
  O         1.8291374309        2.3892460152        5.3966309234
  O        16.1985061927        2.9420403591       16.5073799122
  O        13.9755337391        3.8225827995        4.8266584267
  O        -1.1489882252       16.2393763678       12.8829777557
  O        17.7533635866        8.8441713125       20.3478715815
  O         0.2792667824       15.9211825390        9.5811167730
  O         6.2456358882        2.3787564705       18.1771330341
  O         6.2426484211       16.7243483989       16.0765337709
  O        17.1416495284       17.6529948550       16.7933853308
  O         4.4025831476        2.8646975310        5.9416455345
  O        16.3918631700        1.4699049581       11.6017485670
  O         2.7864358229        6.6331569874        3.8303721793
  O        17.8465895590       21.0678815545        8.5728458625
  O         0.2572235641       18.6269831471       16.4704131501
  O        15.6109180532        8.8901725243        2.2917800236
  O         1.7815376090        5.7285939123       10.0958992748
  O         1.1313097599       20.1998256256       19.8184845068
  O         0.4786163297       12.5411687249        7.6466387436
  O         6.7972485666        4.2303465948        1.8674408461
  O         2.7011452807       16.1854273196       12.3266783452
  O         3.3435209069       20.4814298514        1.7188269922
  O        11.3024238610        3.3957406299        0.6871830425
  O         3.3005146346       19.7661079372       18.5771269291
  O        16.3500886234        5.9935203076        8.5262554682
  O         2.6161208775       14.7566203973        4.7413587547
  O        12.4608929107        9.1239558971        2.3355491975
  O        13.1264869361        5.3669843144       17.1509397260
  O         8.7035710593       14.8202684225       19.2560480450
  O         6.1026114811        9.1937589064        4.4501100356
  O         7.4405734767       19.6237649866       18.7100942064
  O         8.3946711546        5.1625862486       -0.1399299506
  O        14.4959782735       19.0671640535       12.7460905060
  O         1.0780284976        3.6113161868        2.2916565094
  O        18.6109291375       15.6570523637        5.9763147275
  O         8.3057254445        1.0833315966       15.0197162860
  O         8.9603266646       10.4564364196        5.4185484534
  O        17.1668890994       12.5052685903        4.4716177549
  O        18.1704619008        6.5269818263       17.0578538984
  O        19.0871038412        8.9111567820       16.3199791421
  O        13.8920033634        2.2580885318       15.3976559191
  O         4.3925614027       18.6721557532       16.4463204279
  O         0.4597428309        2.5742673275       10.2295468180
  O        14.0001219734       15.4741588079        4.0631441025
  O        17.6023767145       18.1015828246        5.6672812841
  O        15.6621570167        5.3905525488        6.0457185828
  O        10.2457329747        1.7363520770       21.8454971257
  O         4.8702719325        2.8467964788        3.0288949071
  O         1.3254136505        6.7191166566       15.9909751704
  O        18.4592237030       11.2870120868       15.7247031879
  O         5.1077677226       13.7364636889       -0.2491162852
 Na        13.2280043479       14.6285182265        6.3145526327
 Na        -0.6343705747       19.2099990707       14.5012237198
 Na        13.9234457975        3.4282357057       17.7663515014
 Na        14.3907714811       17.7218862402        7.3059407886
 Na         4.1069694882       13.0550371496       17.2132089275
 Na        12.9940345788       19.2976278232        3.8650846248
 Na         5.0510244117        3.8210877543       19.6080949706
 Na         2.3335122252       18.5764551634        2.8853828253
 Na         6.1564099504       15.7842839886       18.2902483342
 Na        18.8511821958       21.6205557237        3.4665471106
 Na        19.2801190738       17.2421854835        3.9867206736
 Na         3.4960761177       15.3536639741       19.7239348211
 Na        14.7233709886        5.7038149045       15.5526249497
 Na         2.1694100545       20.5105503047       10.4286801084
 Na        11.7187534933       18.4973517527       17.4840707863
 Na         7.4721550805       16.2429164453       13.7727519287
 Na        13.3920516880        3.2331156599       20.8510019861
 Na         5.0604241281        0.2475434645       11.5780156318
 Na        19.9167921332       13.6480994273        5.5435160184
 Na        11.7378549720       19.7958372161        1.2586561940
 Na        17.1665481112       14.1900381165       12.5249284494
 Na         2.1405859552        9.8932074701        1.2086033287
 Na         4.2785868878       11.5357366570        9.6455146117
 Na        12.1241902309        3.5126622565       14.4896149290
 Na        12.6639770962        3.9801909311        8.0215448836
 Na        13.7821059160        8.5489331297        4.2057737362
 Na         1.0304021810        6.3608621609       13.8251189753
 Na         2.3693911848       12.4307970942       14.8481676896
 Na         4.2222425110       18.1292619138        5.4185398323
 Na        18.3693691223        5.7751925773       19.2298783650
 Na        11.4582452136       15.9350653068        0.4068631435
 Na         1.3416633899       16.1104536700        6.6006634702
 Na         7.9397857241       20.5453565043        2.6502172260
 Na        15.3275700910        2.2151452557        3.6773623857
 Na        18.7899479474       11.9687471958       13.0432607837
 Na         9.1088021594       15.5352757125       17.2389629850
 Na        16.5758618251       18.9696628782       21.2940487032
 Na        12.6595455300       19.6193837204       14.6519218364
 Na         2.5685882131       17.4869407415       10.0668886861
 Na        14.5945046064       17.0908763852       14.1375491932
 Na        13.5601571396       14.5055744714       11.7652715347
 Na        18.2585203375        8.6159092708       12.3889602131
 Na         4.6664909765        9.9077614259        2.4176828708
 Na        15.1262921299        5.2218293877       12.2976798612
 Na        10.7994784350       10.1217164089        3.3906637716
 Na         6.5321995372        7.8601603255       15.7474195667
 Na         5.5835670464       18.9252422152        0.9023957470
 Na         7.5339867008       12.8757358861        0.3917028479
 Na        16.2830372689        8.1051507461        8.9621981651
 Na        11.7147909692       16.1953064986        3.9004238157
 Na        16.6088562633       19.1144143664        8.6969578584
 Na         5.1917693521       14.2022537877        2.7278197524
 Na        16.7803751839        2.6580950348        6.5235776622
 Na         9.2932766916       18.2190335789       15.6020380334
 Na         6.2714145655       17.3203538236        3.0528014040
 Na         4.5022046251        6.4691513061        2.2979654929
 Na        17.8935685201        5.8044211096        6.2587474663
 Na        17.9486496017       11.3425186857        6.5278123106
 Na        17.6094190460        8.6076248518        3.4845394007
 Na         2.2319601910        4.0225333712        8.8307390260
 Na        12.9392065620       13.9821440021       17.8131620713
 Na        10.0946903666        8.3472588518       17.9112110603
 Na         3.0793449392        4.3227271807        3.7771185172
 Na         0.8300075258        7.5562851498        6.7918173222
 Na        18.4321275842       14.2039939243        8.6384458917
 Na         1.5331872634       14.0048920477        1.9355681841
 Na         7.6215799730       10.7024262695        3.3824799116
 Na        20.0523659962       10.1164807401        4.5097898244
 Na         0.5565776181       15.0907529713       11.9016998787
 Na        11.8473763765       19.1827370401        8.5406838478
 Na        16.9707579290        8.6299234995       17.4326140305
 Na         1.1927810533        4.1662237211       12.1134636663
 Na        16.3665669214       14.4717884697        5.4378688627
 Na         9.5483201975        4.3899645113        4.6990735079
 Na        -0.7216903964       13.3920721238       19.3333230185
 Na         5.9154937541        3.4736290905       12.5007360952
 Na        10.0278375041        9.8953420145       10.0497765989
 Na        10.5377476279       20.0003064385        4.5010269255
 Na        19.7720779613       19.6069891233        7.5493830363
 Na        15.8155219644       15.7510634180        9.3018274380
 Na        16.2530064113        2.7962371802        9.6699131162
 Na         3.7741640988        6.0236554348        5.7932162660
 Na        16.4667873631       15.9132815670       18.1742407010
 Na        10.6223939674       11.6598980315       19.2386121458
 Na         5.3965621513        1.3429887558       16.2420089945
 Na        12.2485087454        6.2032437431        6.1391375130
 Na         8.8715448237        2.7602123339       12.9644650013
 Na        11.2060926169       21.6781488965       18.1591989188
 Na         6.7921844722       14.0134191093        7.4980949531
 Na        10.6956635901        5.3781506394       18.8821337218
 Na        12.4860437382        6.3430659404        2.2342456247
 Na         5.6976936983       17.2237512300        8.8291137037
 Na         4.3208780922       14.8719585364       14.6727952925
 Na         1.6235592041       11.5141341780       18.3268002424
 Na        12.9716265046       13.3585592421        3.1862515213
 Na        13.9576429127        1.5065804651        7.3398935924
 Na        10.4993893548        2.2954033144        7.0339393803
 Na        -0.7203370749       20.1433668383       11.1282576661
 Na        17.3537842156        3.3414646662       12.5947185776
 Na        17.5700019770        5.3143379454       15.2815572388
 Na        10.0256504782       11.1857741189       14.2602941194
 Na        -1.5622107138       15.9936057150       15.0559104233
 Na         2.6309363857        0.8014867445       14.1687578498
 Na        12.4846058507       12.5567425231        9.0707391313
 Na        19.7741627492        5.3767503272        3.4868203473
 Na        15.1645399353       13.3214842910       15.2754761379
 Na         0.4431871110       16.6358398523       20.1181210182
 Na        15.6770328797       11.0134294999        3.6659204233
 Na         4.0316174652        9.4532519663        5.6454878750
 Na         2.7820411569       12.2088227052        3.7132040377
 Na         1.9585282287        4.3231362232       17.2194583483
 Na        19.0733392147       10.1229358470        9.1663931980
 Na        16.4592463834       10.4244979815       14.7953449924
 Na         5.9450519040        4.1404793553       16.3575467605
 Na        13.6404390658        6.9453715401       18.9175087881
 Na         6.4587107863        9.6739564256       -0.3526667360
 Na         1.2664464300       13.3056853422        9.7140855785
 Na         9.0965869376        7.4670734571        1.3312529656
 Na         1.9111478196        9.4770767417       12.3899218781
 Na         5.5776438415        3.6174133456        8.7395715829
 Na        15.4609290380       19.2663015953       16.4877011435
 Na        13.5749988700       20.8607571823       10.4542873808
 Na         7.1853879513        7.9607401654       11.7643587683
 Na         3.8433944060       10.2629331311       16.8914918595
 Si         0.7190732296        3.5275369355        6.1295898277
 Si         8.1675746471        4.0793325461        1.0798034811
 Si         4.5897435262       12.4036817532        0.5370725720
 Si        17.7418501895       16.7946432080        6.6899176737
 Si        17.2404769960        2.5699905911       19.8113454243
 Si         1.8648493185        7.8005066933        3.3084974979
 Si        18.2711442129       12.4578342521        3.3413019283
 Si         3.3286576824        1.7259871939        5.8429297587
 Si         6.0965793082        3.9413895623        3.4271310681
 Si         9.5290605800        1.9824337215       15.8596393120
 Si        17.7559504536        2.4572116322       16.8800157481
 Si         9.7660201661       18.0701843753        2.3891388354
 Si        16.4277003634       18.9683206546        5.0170204615
 Si        14.4715183465       13.0858127776       20.1924202251
 Si        19.0692457030       17.3651372851        9.5900329767
 Si        10.6278305374        3.1933120707        2.1052989391
 Si         8.5616128858       18.4195732989       19.1160584460
 Si        12.1695960785        6.3641776144       16.2881422158
 Si        17.6050494057        5.3977416774        9.4912228955
 Si        11.6297559984        8.9902548471        0.8992880547
 Si        14.7695040639        5.2467717032        4.6450259306
 Si         2.9134240790       17.4818131928       13.2956666323
 Si        18.1779472761       12.8438403157       16.1000725774
 Si         2.6289009074       20.6883382631       19.6618623384
 Si        14.0121967140       17.4753463487       19.6685668373
 Si        14.4176487572       20.3135982969       19.7537803840
 Si        13.6810085572       16.5142204826       16.7610500164
 Si        18.1982825143       18.6920735012       17.3458402304
 Si         4.4809962725       20.6820815893        3.0546098012
 Si         0.7448002083        6.9615378379       10.1876999962
 Si         8.2557402511       15.8309826728        1.1234371149
 Si         3.7020267266       18.2376753802       17.8793829132
 Si        18.1814843501       10.4599427235       20.3674360694
 Si         7.6585435382        1.8691723404       18.5023671505
 Si        19.5340760537        7.4057380042       16.9225357025
 Si        16.9965867060       14.7834854406        1.6917603580
 Si         2.6926302892        9.1147714822        8.8848413180
 Si        16.1565515353       11.6662969891       18.0011530640
 Si        18.9818370431        2.7581124152        8.8842380723
 Si         0.3517880955       10.1764182666       15.4908303271
 Si        15.9375057454       19.8364203347       12.7949661601
 Si        15.0776766451        5.3472774645        7.7008683875
 Si         3.4846674981        3.9753298286       14.5894312607
 Si        15.3521537632        2.6958220577       15.0281957959
 Si        -0.2956671435       19.6261711675       20.2158418585
 Si         1.2143371449       14.6508979653       17.0646161783
 Si         1.7842758699        6.8163881330       19.4423281589
 Si         7.3968198554        6.3048711321       18.4377617065
 Si         4.3190073873        0.9487250156        8.4961135903
 Si        15.9035586565        5.1453174246        1.8068385515
 Si        12.3851430915        3.2726931259        4.7729614242
 Si         2.7403495187       16.1838232154        3.8926646796
 Si         0.3320848490        3.1557361193       14.4474348116
 Si         4.7789125610        7.4127340336       18.8897415107
 Si        17.1400270751       17.1066354257       12.1287399026
 Si         5.3582400302       17.8427780428       15.3650032925
 Si         1.4538526209       11.2716093877        7.1546454171
 Si        15.0574486202       16.4640560195        3.3022813762
 Si         7.4166325869       19.6827706418       13.7881780929
 Si         2.0643597164        4.0825664738        1.0990891761
 Si         1.3016328204       17.4137352302       16.1541617507
 Si        16.2794693563        8.0912865551        1.0697507778
 Se         4.4787712851        8.3927887699       13.7925728176
 Se         6.3662672844        6.2015577659        7.0412817043
 Se         5.5873488538        5.7983046550       10.4812767120
 Se         8.3793621753        5.6609856717       12.8977523773
 Se         8.1429627702        3.0661454640        9.9174403595
 Se        11.4638121836        1.4213162622       12.3949189063
 Se         2.9288850669       12.4210227116       12.1335493291
 Se         6.0892310681       12.5325714617        5.0987716381
 Se         7.1198997258       10.0685314002        8.9293290882
 Se         7.6854088326       10.5686976840       12.6277228528
 Se         9.9081047967        7.0516977682        4.1134470450
 Se        10.3126639283        7.2742536990        8.4338010762
 Se        11.1530641958        8.9301155146       12.7643519747
 Se         8.4499195522       10.9622781985       17.4770494404
 Se        12.4882368028        4.8064730334       11.3270033435
 Se        15.7420462196        7.7773211501       13.6364464693
 Se         6.6281741874       16.3941819786        5.9365379225
 Se         3.6353180043       14.8829699797        8.6546804190
 Se         6.8421933376       14.8735328008       11.0864198590
 Se        10.1859417990       13.3648657199        3.7469257103
 Se         9.5383051833       13.4446167597        8.4419182476
 Se        10.9132723690       12.5985651704       11.4443136814
 Se         8.9353083840       14.3268678202       14.8408455534
 Se        16.5849543981        8.9311112080        6.2040252043
 Se        12.6724751223       11.3034539471        5.7746255477
 Se        15.2169228039       12.0552660482       12.7111497940
 Se        12.3547934682       12.0807704191       15.6356314277
 Se        13.5133864028        9.5013916772        9.6696084559
 Se         8.8327434147       17.8632063723        9.7337926418
 Se        11.5548730478       16.7180126836       13.0199651623
 Se        11.3420892529       17.4848978327        6.2907790766
 Se        12.9598538438       15.5136051017        9.3205879147
 Se        15.7667782398       12.8713138361        7.9807072718
 Cd         5.4781347263        7.9162567294        8.8473322841
 Cd         8.4320033185        5.4455128447        8.6980109578
 Cd         3.6443342873        6.6170842708       11.7027669008
 Cd         3.5857813395        6.9380580473       15.8720104139
 Cd        10.9430046410        2.7335393445       10.2617433101
 Cd         8.0841859322        0.7116612253        8.6970292607
 Cd         3.8099844874       13.5767689493        6.3137242254
 Cd         7.0293533056       10.2215812883        6.2460177960
 Cd         5.1370729878       11.2115723979       13.3278519087
 Cd         7.1651988730       12.1113403546       15.7425055249
 Cd         6.9340414138        7.1297331791        4.6297955606
 Cd        10.0588585316        8.6498287317        6.2027862625
 Cd        10.9295995906        6.1734068514       12.8242587950
 Cd         9.0947447444        5.3998073652       15.5122767702
 Cd        12.7328717055        6.9743117234        9.7232397602
 Cd        13.2343931959        8.0958541167       13.9889642416
 Cd         7.9541577147       14.6105679358        4.3418268946
 Cd         4.2377095268       14.5896725315       11.4264175549
 Cd         9.7931045801       14.7747155641       12.3854665342
 Cd         6.5693947090       21.2631807721        5.8815878506
 Cd         9.8959048944       12.4421314345        6.1368658701
 Cd         7.6182101654       12.2928748972       10.5876375519
 Cd        11.6271610332       14.9383352925       15.1874471123
 Cd        14.1834257982       10.1067544175        1.1706665960
 Cd        14.6413406354       10.3631580434        7.1748816246
 Cd        12.7195227584       11.2775026957       12.8996207903
 Cd        13.3240550402       10.0409409949       17.1042168218
 Cd        15.3098108851        9.3639060650       11.4446122948
 Cd         8.6808099315       18.0800636128        5.6475169034
 Cd         9.9946967328       18.7711377882       11.9124391493
 Cd        13.8878503060       17.8149028170       10.9119544990
 Cd        10.5195637738       16.0515597558        8.3448613099
 Cd        16.7985368847       11.9658764637       10.2825282739
