438
 i =     5500, time =    11000.000, E =    -10932.3953770263
  O         4.0622622036       16.6774661741        3.0686093391
  O         3.4971865319        8.5416709611       10.0587436349
  O        13.8740998456        1.3673222024        1.6702079253
  O        12.0365739112       16.0373042316       16.9956150466
  O         1.6794119369        7.6954288337        1.3056905575
  O        15.8931824146       16.3730448745       11.8531535481
  O         4.0593028666       11.4689435363       18.4625697312
  O        17.5444163542       15.5098109232       19.7969184937
  O        15.3941738711       14.1790082141       20.7935468777
  O         1.6562904982       15.8090254155        2.3672793385
  O        11.6244917421        7.3769868543        0.4926424475
  O        18.0808659072       13.8639711440        2.2459432959
  O        10.8124887537        6.5046651680       16.9081641411
  O         1.6192232062       14.8901553497       18.6641664295
  O        17.8665758032        3.1488784525       18.3547855217
  O        12.1803695378        2.2682806125        8.6618016351
  O        14.2838083980        1.6188742421       18.4624760218
  O        17.3878478722        6.5578831086        1.3494896340
  O        10.6327457583        0.7437924008       16.2027810673
  O        15.5193706381       19.5113908074        6.2382504009
  O         4.6504740721        8.2329882368       20.0632424166
  O         3.4844224236       18.8393623857       12.4129953419
  O         1.1202659683        7.9431701215        9.0993186546
  O        16.3351212643       16.4242574852        7.4023477944
  O        17.5524671229        4.0712301888        1.4401882343
  O         7.5134847673        6.3161058386       16.7693468063
  O        16.2025607690        1.8331984540       20.1465615910
  O        -0.2312215718       18.6885525710        2.0811618540
  O        -0.1865517719        3.9863814989       13.5410346847
  O         2.5546120083       17.8803492900       17.1570489541
  O        11.9061117684        4.1030239693        3.2043342218
  O         0.6838407328        2.4429676358        7.5092477941
  O         4.6080472554        3.1360453945       14.2674221552
  O        16.7561192404        4.4653433162       10.6021112711
  O         5.4895922388        5.5182736153        3.9838014763
  O        11.6164888342        4.2740018853        5.8622363245
  O         4.4996739950       19.0843809673        9.1760936774
  O        14.5702597124       15.6099113012       16.1607611828
  O        17.0483433817       11.2823260031       19.4203627596
  O        15.2319052796        5.0675500858       19.9099331530
  O        18.9057056153        3.4553096635        5.2823960611
  O         3.2277502037        8.0386554137        7.3255450358
  O         4.7877604005       17.6771928067       18.6101940950
  O        13.2680174048        7.8967599422       16.4991592971
  O         1.9775342330        3.4237146832       14.9327556133
  O        16.1325934762        5.1540383361        3.2553397851
  O        14.4565583351       11.8516221852        2.1713957661
  O         9.5945665257       19.0496168216       20.5105532477
  O         6.1198285436       20.0011945377        2.7711740674
  O        16.9980333170       18.6784837005       12.7990023593
  O         5.1697200482       12.5670725896       15.1720748728
  O         0.7634739256       16.2082950901       16.4808846673
  O        11.1446296052       18.0068850077        3.2213818436
  O        17.9835252914       11.0907746465        2.5122272355
  O         9.4711891505       16.5123697335        1.7955084147
  O         0.6667862990        1.5046989414       13.6701506857
  O         7.4395876160        3.5123145702        4.1145097932
  O         0.8394640726       18.7255418878        9.6204696782
  O        18.7441681282       21.0842661648        0.8866096845
  O         3.4078678403        4.6680878101        1.0918965029
  O        17.7910246708       13.9450174174       14.8726443029
  O         0.1290982796       13.6151971801       16.9094052368
  O        14.7564002034       12.5745444465       18.8786237287
  O         0.7465191735        7.5812601719       11.8100303542
  O         7.8601702896        2.8275567333       19.9747042251
  O         0.3219723150       11.2505640392       19.7927726332
  O         3.8213166070        2.3693361007        8.9566462219
  O        10.1110084224        3.2630347665       15.2757114706
  O         0.3706142059        7.4397143472       18.3417338625
  O        12.8076973843       13.5897931299       20.3125402097
  O         5.9577139229       19.5000250633       14.1253890534
  O         3.4653662008       11.9070491895        1.7372448181
  O        14.1549238946       16.4252035277       18.6496738260
  O         2.2951730401        2.8112174083       19.1091732463
  O        19.5469691302       10.2670749533       13.8140261526
  O         7.1004574383       15.3816165627        2.2322206912
  O         0.1907374908        7.4707621749        3.7647592541
  O        17.7102388579       17.7849133168       10.2916875217
  O         9.1759007721        2.2818563013       17.6170584176
  O        14.0249636948        5.9398743576        7.7249626657
  O         2.2479443411       10.3106794137        8.5639549736
  O         2.2032883665        9.2778720207        3.5150361330
  O         8.3600315545       18.7376823412       13.4035543858
  O         3.4502689204        0.6647753194        6.7824733108
  O        12.4740765613        6.0260880161       14.7386624571
  O        12.5635560958        9.9327330450       19.1834145657
  O        15.6446004042        8.2979635174       19.6089463660
  O        10.3694925626        9.7191975178        1.2936917314
  O         7.3227632833        1.8455175317       12.6915902109
  O         8.8484978100       20.7366840242        6.2994667987
  O         2.9615097489       11.7275295194        6.2397202517
  O         2.9460529137        4.8887533108       13.0114621062
  O         5.6060778373        6.1573641864       18.7664969847
  O         1.9732225844       17.2131155225        4.7164443758
  O        17.6316765036       20.2461531156       17.0269570690
  O         2.5560501032       14.2581159002       16.1303202964
  O        -0.4978707351       18.8085642762       18.7546340081
  O         1.7799205847        4.5902587429        6.1611239129
  O         3.9622341703       20.3018183633        4.1897804988
  O        15.2584624207       18.0331181494        3.9956888468
  O         9.5696969403        4.7738985792        1.7002952755
  O        12.4465958321       18.1530486446       19.8493976794
  O        14.1188011836       16.7146400245        1.9951134577
  O        16.9706659979       13.0450619891       17.3455459431
  O        13.9527539632        6.5025336873        4.2658555206
  O        17.2683055258        9.7560696005       10.2335756385
  O         4.7554169926        8.3213962129       17.4155938391
  O         1.0262629540        5.1532694794       19.3813351566
  O         0.4505349734       12.4556560166        3.6045825293
  O        18.4825013352        6.4696557648       10.0197461707
  O        15.1590001527       18.6487894041       19.8344205737
  O         1.6143441727       10.5713039126       16.0642802191
  O        -0.1495451411        2.8780675619       16.0727039519
  O        14.1362226599       19.2373188250        9.2658917895
  O         6.0517356589       11.3255347215        1.1116716821
  O         8.5585796483       18.5312228937        3.4997679848
  O        15.2670508514        3.5288231172        7.6053023373
  O         2.9500063155        6.8059199982       18.4719819166
  O         0.8508195377       10.0755187337        6.3840150508
  O        12.4565547018        1.9175160377        4.8746127374
  O        18.5372124072       17.8866336726        7.7549064422
  O         9.3603394587       17.7470093065       18.1139815988
  O        17.0012912640       20.1236104651        3.9893142066
  O        18.6712730794        4.3320925948        8.6211557025
  O        18.9143886947       13.1015923291       10.9333578340
  O         3.8036526134        5.1663022907       15.6820770225
  O         4.5453111529       17.1537555797       14.2110029433
  O        15.6152218124       10.6341872544       17.2194052203
  O        16.5184530664       15.9861108246        2.8772239611
  O        16.1117054578        1.4079236127       14.2027159969
  O        15.7720448794        4.1347171983       13.7862735662
  O         5.9579503213        1.4441757693        7.6911520749
  O         2.0291090714       17.5450045791       14.5300441703
  O         7.4365727964       17.5115262017       19.9101998773
  O         7.7279814916        8.0243697249       18.8182906065
  O        13.6070348725       18.1598371872       16.4007508261
  O         1.8900936485        2.0031494718        5.3294440173
  O        16.5836919621        3.2196728242       16.1305270876
  O        14.1431301833        3.8435682017        4.4869474031
  O        -0.7451103247       16.6165534313       12.5133512549
  O        18.1121752281        9.0202355930       20.1935710082
  O         0.4927215186       16.1221785493        9.3674606901
  O         6.4827819899        2.6493500378       17.6244764154
  O         6.6920314904       17.3156104830       15.6938884685
  O        17.3989795231       17.6318451170       16.7548756751
  O         4.3811819386        3.0714309897        5.7139830494
  O        16.1320521645        1.5136552259       11.5504084116
  O         2.7101536668        6.5976545023        3.5847313824
  O        17.6445980169       21.2158920323        8.5593655811
  O         0.2868903680       18.7394712090       16.0743881130
  O        16.3292416806        8.6851084519        2.8803662926
  O         1.7670484609        5.6296878647       10.2493152724
  O         1.6974642686       19.6736248657       20.0640681341
  O         0.6940665778       12.5095484917        7.5886192715
  O         6.9165736488        4.8852896400        1.9330637257
  O         2.9125403660       16.2669488032       12.1596944997
  O         3.8852228127       20.5674107814        1.5150907008
  O        11.4060830908        3.2834006241        0.6108531786
  O         3.6621830578       20.0388786043       18.3069598707
  O        16.6557697274        5.8109085589        8.2366513955
  O         2.8217261453       14.6602601428        4.4319902807
  O        12.7073425359        8.9896116696        2.3495290681
  O        13.0194681688        5.3412350596       17.2867040045
  O         8.1947172905       14.9086511022       19.2078997777
  O         5.9042678547        9.3091535509        4.4924924084
  O         7.6334810726       19.7827505001       18.7812632508
  O         8.1860773612        5.3541474373       -0.3075290966
  O        14.4890359886       19.1850261775       12.9914592670
  O         1.3618134057        3.4656089580        2.2422669841
  O        18.7533859035       15.6780821793        6.3571255837
  O         8.1153713567        1.3539640559       15.2150432459
  O         8.9451979163       10.6354239735        5.2986465686
  O        17.3671921395       12.7316155662        4.5055595824
  O        17.8797183679        6.4904586278       16.7751899094
  O        18.8544083829        8.9141393797       16.2454032431
  O        14.0804031170        2.8169165230       15.4240156539
  O         4.6343866462       19.0664999733       16.1949158684
  O         0.2718009556        2.4701101056       10.2244353445
  O        14.2376446989       15.4906345610        4.3913890739
  O        17.5678633421       17.8383991381        5.3696092923
  O        16.0184724109        5.3132971294        5.8102213104
  O        10.1706151399        2.2083816762       22.1618651653
  O         5.0770484856        3.0747188612        2.8799118159
  O         0.9834662885        6.7680142585       15.6945210640
  O        18.3970033462       11.4663217061       15.7440217963
  O         4.9993544562       13.7305182075        0.2321775589
 Na        13.9903077706       14.4856630966        6.6684765262
 Na        -0.0610245408       18.6948467302       13.6615779283
 Na        14.6576326718        3.8401007462       17.6110591087
 Na        14.2626152019       17.7168654684        7.4995426650
 Na         4.3237305645       13.5294196114       17.6285885555
 Na        13.1261258325       19.2931443182        3.6634528591
 Na         5.1370487550        3.9427922100       19.3000083604
 Na         2.0876963199       18.7675555518        2.9956274670
 Na         6.8072267902       16.2744523259       17.7002732668
 Na        19.1161485182       21.5304167052        3.3127618689
 Na        19.1599539357       17.0712602015        3.8566641301
 Na         3.8053154466       16.0021221684       19.6990050264
 Na        14.6901675788        5.5974394089       15.2514338161
 Na         2.0217456627       20.3984340314       10.4385991136
 Na        11.5298488719       18.4014161199       17.8058269948
 Na         7.4188409784       16.7407748070       12.8284567679
 Na        13.5223065597        3.6523654376       20.6612006255
 Na         5.5159576653        0.4174539220       11.5107040960
 Na        20.0007889533       13.7263645121        5.5878041584
 Na        11.5202407058       20.3075231372        0.9941524820
 Na        17.1370327179       14.3266613610       12.1708108559
 Na         2.3098155639        9.9504644407        1.0730553120
 Na         4.5445222090       10.7283510264        9.9138815969
 Na        12.3279557302        3.8255824170       14.4667186059
 Na        12.7386211962        4.1705980115        7.9353431913
 Na        14.2064297397        8.7405489281        4.4220573623
 Na         0.8613648984        6.2472838656       13.5703039455
 Na         2.8354538678       12.4577184323       15.0371684560
 Na         4.1088026579       17.9098357942        5.1768635922
 Na        18.2444992522        5.5726000962       18.6866608584
 Na        11.8117543437       16.0643527775        1.8771123768
 Na         1.4769236544       16.3057756319        6.9244394479
 Na         8.1432370000       20.9336507657        2.7059826444
 Na        15.3849943617        2.3075477581        3.4836583793
 Na        18.7864311746       12.2029870025       13.1075169561
 Na         9.9241782891       15.4064572509       17.8988066995
 Na        16.9434392275       18.5241572773       21.4414432480
 Na        12.5087374097       19.7773861783       14.6638739979
 Na         2.6226390161       17.3324105129       10.0060540675
 Na        14.6976756976       17.2590828833       14.1785248348
 Na        13.5120639710       14.5418119023       12.0954181983
 Na        18.4726219522        9.0320074227       12.1978677535
 Na         4.7767908238        9.6953653535        2.3709754545
 Na        15.2493254051        5.3557423788       11.9630382233
 Na        10.7586334449       10.1817009189        3.5165802943
 Na         6.9866534677        8.3257998538       15.7559399059
 Na         5.7085815312       19.2097925809        0.6662579213
 Na         7.1936280973       12.9692591689        0.2455200674
 Na        16.1666960544        7.9756455334        8.8992227845
 Na        11.3299373771       16.1431828796        4.7378980018
 Na        16.4770189648       19.1134138798        8.4156304792
 Na         4.9154895778       14.2939388426        2.5816407631
 Na        16.9537676421        2.2740832872        6.3795897392
 Na         8.8132755044       18.1338300209       15.7431729419
 Na         6.3868270793       17.4797632711        3.1906797406
 Na         4.3536027411        6.4032118051        2.2001592775
 Na        18.5198131837        5.5333687622        6.4669319185
 Na        18.1344580967       11.6374171227        6.6076783490
 Na        17.2902392236        7.3359331381        4.1929005256
 Na         2.2362504409        4.0333982251        8.8085612775
 Na        13.0308102053       14.1428521772       18.0102090975
 Na        10.0280639106        8.6187936802       18.0437036865
 Na         2.9815321468        4.2936732786        3.7110725420
 Na         1.4712963558        7.7352054775        5.8524476910
 Na        18.8869422216       14.2859803594        8.4859920039
 Na         1.6768917761       13.5219845550        2.0796899670
 Na         7.4047737439       11.1357750458        3.1194138603
 Na        19.2697377323        9.9906683785        4.1349612619
 Na         0.7951290779       15.0276622204       11.6671249755
 Na        11.7343112574       19.3111153008        9.0233497491
 Na        16.8157868729        8.6069038190       17.6122481577
 Na         1.3000923769        4.0115060911       11.7218323504
 Na        16.5057982326       14.7235634603        5.2765399164
 Na         9.4252877609        4.5575728415        4.8534598370
 Na        -0.3391561781       13.3698350970       19.1678398219
 Na         6.0024279490        3.7976759399       12.6540110867
 Na        10.6192043452        9.9658009738       10.6512127986
 Na        10.5406170621       20.2177337707        4.3631828665
 Na        20.5427813729       19.4188611420        7.2184844120
 Na        15.9580567013       15.5543999068        9.4778445539
 Na        15.8422329239        2.7569384365        9.5623585057
 Na         3.9666346133        5.8560195928        5.7044790852
 Na        16.3964166854       16.0954642751       18.0164248635
 Na        11.2040129821       11.7072705524       19.7556443532
 Na         5.7767607018        1.8602026101       15.7155600838
 Na        12.2438861689        6.6837116184        6.0785622804
 Na         8.8964908853        3.1528324079       13.1937841439
 Na        11.9161184330       21.7387824450       17.7060102437
 Na         6.8942504430       14.1151804082        7.7352295298
 Na        10.9156287874        5.4625955874       18.8651064543
 Na        12.2631101170        6.6542619531        2.7088340163
 Na         5.7405279000       17.3213460866        8.7097571232
 Na         4.2552060539       14.8879071662       14.4659619872
 Na         1.8123123280       11.6006972157       18.1840276813
 Na        13.4912874943       13.3922831505        3.6330587134
 Na        13.9182106324        1.4668079706        7.1864354607
 Na        10.9440111791        2.0497970073        6.8059140837
 Na        -1.2032171042       20.1622079509       10.6238016958
 Na        17.4653836452        3.2547899849       12.2347739135
 Na        17.8702820385        5.0672957342       15.2240939339
 Na         9.8238719672       11.0569111302       14.7842777455
 Na        -1.2714846498       16.1286978522       15.0408806925
 Na         3.1371810434        1.0643132007       14.1427590014
 Na        12.4171436091       12.8318467603        8.8181326744
 Na        19.5299462044        5.0962983906        3.3604197405
 Na        15.3450950639       13.5787220535       15.5716836946
 Na         0.4127669278       16.5195445489       19.8482610654
 Na        15.9333286163       11.0295574240        3.6433390829
 Na         3.8532609435        9.5051926948        5.7163524495
 Na         2.4563021567       11.6576878157        3.9253326958
 Na         2.0778335315        4.4432073164       17.0308617846
 Na        19.0499129518        9.3226406006        8.2578614806
 Na        16.4222513478       10.2295373579       15.0935883548
 Na         6.0250969148        4.6720084454       16.2126112266
 Na        13.9188302511        6.6370740360       18.9252362883
 Na         6.3163502415        9.6826926218       -0.4005416527
 Na         1.1542620234       12.1149178146        9.9623587562
 Na         8.8402803845        7.8142748917        1.3748886937
 Na         1.9527834867        9.4375568984       12.6814419600
 Na         5.5456461723        3.6391638343        8.8967098302
 Na        15.3233820432       19.6609359357       16.7528702931
 Na        13.7098632848       20.6813995218       10.9628242258
 Na         6.9978425092        7.9601227846       12.0351094691
 Na         4.2416603538       10.4249117741       16.5528793733
 Si         0.9003499528        3.2207103377        6.0508573142
 Si         8.1653577318        4.3975995668        1.0368538547
 Si         4.6677461653       12.0688104271        0.5788519813
 Si        17.7427004867       16.8554993008        6.7394262388
 Si        17.5601204862        2.6812915074       19.8442777750
 Si         1.6634036605        7.7557262219        3.0995803912
 Si        18.3126700957       12.5718046184        3.2451785847
 Si         3.4565497378        1.7926661614        5.5778461625
 Si         6.2019090711        4.2409938292        3.3482330939
 Si         9.5077278720        1.8981956307       15.9789753821
 Si        17.8559932191        2.4907152008       16.8341216639
 Si         9.7023485793       18.0890613215        2.4612090667
 Si        16.3557732835       18.9786948265        4.9511304098
 Si        14.2641623010       13.0407407548       20.4224658499
 Si        19.1639399243       17.5883804982        9.3172641159
 Si        10.7623273723        3.4891569823        2.0653034006
 Si         8.5526778399       18.5512177404       19.2183168511
 Si        12.3476350066        6.4773923350       16.3577654820
 Si        17.6267746842        5.2256964456        9.4855741372
 Si        11.7635792105        8.9565420875        0.9549646888
 Si        14.9680657995        5.2295969215        4.5000595473
 Si         3.1600929971       17.5056610282       13.2243617297
 Si        18.1978250065       13.0486422087       16.0834157240
 Si         2.9284993764       20.7099417885       19.5723841494
 Si        13.9101278420       17.4928881948       19.8818275062
 Si        14.7358042724       20.3460719111       19.8037927626
 Si        13.6499316624       16.6256661092       16.9104119473
 Si        18.3689300200       18.7716242594       17.1675484613
 Si         4.8349914399       20.8487044947        2.8852104862
 Si         0.7318816482        6.8540912023       10.3291402489
 Si         8.0042539129       15.9218360629        1.0503811115
 Si         3.9548330871       18.5628083725       17.6567029479
 Si        18.3717744845       10.6346360434       20.3209518693
 Si         7.7375190528        2.1117731841       18.4248980489
 Si        19.2304585395        7.3981870542       16.6845525087
 Si        16.8573479726       14.8357232133        1.6876933723
 Si         2.5840463152        8.6945592214        8.7199963364
 Si        16.1322376236       11.8963375967       18.1855940745
 Si        18.9690446423        2.6874283561        8.7854217768
 Si         0.2377044164       10.1958828439       15.4179489043
 Si        15.9062753135       19.9147281085       12.8008101868
 Si        15.3846631298        5.1870928736        7.3597834728
 Si         3.4168407859        4.2145106805       14.4475776853
 Si        15.5386112776        2.8633731037       14.7764589513
 Si         0.0951548562       19.5607334041       20.1482429372
 Si         1.3631995985       14.7721007219       17.0740150094
 Si         1.5608278752        6.7841049767       19.3222756955
 Si         7.2526335201        6.5329020441       18.3047773586
 Si         4.4605958707        1.0379928851        8.2773936158
 Si        16.3972391537        5.2223360929        1.6081798062
 Si        12.4224419291        3.5081465508        4.6468313848
 Si         2.6453811665       16.0499450770        3.6407355784
 Si         0.4965538854        2.8744747407       14.4368720967
 Si         4.5010154318        7.4338199528       18.7279432735
 Si        17.2819886475       17.3226223193       11.8596773418
 Si         5.5267033112       18.1630190353       15.0692799734
 Si         1.6593615519       11.2028763830        7.0886485380
 Si        14.9585630084       16.4880599007        3.3615773235
 Si         7.4971164879       20.0417546623       13.7511979347
 Si         2.0037288771        4.0093479785        0.8763379087
 Si         1.4905809590       17.5645810914       16.0169852804
 Si        16.7735781525        8.1880237356        1.3739115736
 Se         4.3983070039        8.4460847733       13.7285512109
 Se         6.7161733937        6.2139059955        6.9769839636
 Se         5.9762170918        5.8429729057       10.5688129098
 Se         8.3776525874        5.7359991911       13.2407809342
 Se         8.4380636469        3.3747249845        9.7325687532
 Se        11.3934435078        1.8743187427       12.3519002459
 Se         3.0854471795       12.3994680008       11.9812219801
 Se         6.1153491342       12.7874457956        4.9841500792
 Se         6.8837320281        9.9794764296        8.8025622732
 Se         7.6073865667       10.9769030999       12.6559238105
 Se         9.6727199594        7.3649972459        4.1960241982
 Se        10.6125249186        7.5177633952        8.5406059869
 Se        11.0073398762        9.0056347063       13.2946283906
 Se         8.5143495244       11.1305379474       17.4484365591
 Se        12.5088431070        5.3745916060       11.2729238066
 Se        15.8138725889        8.0225053777       13.4655736277
 Se         6.8900758182       16.5645454461        5.9590751584
 Se         3.7171665707       15.2086717604        8.3917896643
 Se         6.8814462263       14.6390669156       11.0409094210
 Se        10.4120237019       13.6774456152        3.5264597465
 Se         9.6545096518       13.4801846014        8.2557406704
 Se        11.2935875178       12.6426799815       11.3838438578
 Se         8.8962763125       14.6991285014       14.8924389165
 Se        16.5485458900        8.9422252537        6.3103580095
 Se        12.9037512495       11.8425081160        5.8914679635
 Se        15.5168937545       12.1167568158       13.0509948226
 Se        12.5367519441       12.3030228740       15.7448577393
 Se        13.6240799149        9.7377465206        9.7067185138
 Se         8.7133695809       18.1053718230        9.7800522886
 Se        11.8969622321       16.8682940056       12.6841325558
 Se        11.1246781385       17.9733025797        6.6909807709
 Se        12.9659316479       15.6519033302        9.5096951530
 Se        16.0145538490       12.9772162690        8.0922891531
 Cd         5.4118740715        7.6801290416        8.7185722781
 Cd         8.6519527242        5.6570882713        8.6455062922
 Cd         3.6361149112        6.5333150137       11.6330226154
 Cd         3.3536818785        7.3962168014       15.7900739744
 Cd        10.9357395974        3.0861338981       10.2169317873
 Cd         8.3596435091        0.9722118665        8.4325288715
 Cd         3.9033462401       13.8014212358        6.0940818958
 Cd         6.7904600941       10.5371840591        6.1448615662
 Cd         5.1530437337       11.4609609800       13.2325913667
 Cd         7.1179878824       12.6382321963       16.0196293047
 Cd         6.9191250207        7.4852633416        4.7063571549
 Cd         9.5950456202        8.9267921032        6.4862037705
 Cd        10.7487247606        6.5223213047       12.7425945730
 Cd         9.4565970738        5.4960084400       15.6016948865
 Cd        13.1510096777        7.1738197632        9.5105536945
 Cd        13.3213348779        8.2317140628       14.0587315563
 Cd         8.0746063109       14.6913297274        4.1957400654
 Cd         4.2788921051       14.4806834344       10.8286421210
 Cd         9.0014419188       13.3716599715       12.5745072404
 Cd         6.7141566040       21.8249897198        5.9577726460
 Cd        10.0223544315       12.4967333083        5.8178858579
 Cd         7.9814350813       12.1282463505        9.9381660725
 Cd        11.3552377378       15.6424946524       14.9768749937
 Cd        14.4653185470        9.8680692177        1.1881862947
 Cd        14.7598983859       10.7053408773        7.3660823501
 Cd        12.8147552204       11.6483411994       13.2261507894
 Cd        13.3227558440       10.1543608323       17.1664842879
 Cd        15.4474721930        9.8773256055       11.5479374664
 Cd         8.6499367455       18.4678877249        5.7355954336
 Cd        10.2059704377       18.8780760220       11.9805857715
 Cd        14.1073188507       17.8053685353       10.8945899692
 Cd        10.3602078241       16.1620921040        8.5678580253
 Cd        17.4838893634       11.8641946601       10.0695094811
