438
 i =     8400, time =    16800.000, E =    -10932.3669009097
  O         3.9366613236       16.5106161808        3.1133538318
  O         3.5538495046        8.8005294725       10.2725877352
  O        14.5392904371        1.2249892624        1.9154552241
  O        12.0428267011       15.9204356654       17.1947267009
  O         1.6570313925        7.6195498991        1.4734483220
  O        15.6049771100       16.3198651131       11.9773984100
  O         3.6514081257       11.5756294057       18.7060271739
  O        17.6835149045       15.5121089959       19.7486485942
  O        15.5745337480       14.0418033397       20.5410394588
  O         1.4267142193       15.9002330317        2.6435492589
  O        11.2969274752        7.3018537173        0.6268943880
  O        18.0048071884       13.6076902228        2.1496975542
  O        10.6846329957        6.6215302993       16.8590734322
  O         1.4334595877       15.0049553775       18.6661950436
  O        17.9386817076        3.0988595641       18.2850774697
  O        11.9343772327        2.0988721709        8.5901398404
  O        13.0942397628        1.3188646967       18.9972805915
  O        16.8454173520        6.4453108088        1.1800217802
  O        10.6883181513        0.7787381026       16.1082709151
  O        15.6886474140       19.3778657142        6.3524991171
  O         4.7780413152        8.2559904410       20.1715248308
  O         3.3554510047       18.7968647221       12.5695458713
  O         1.4435578613        7.8563763663        9.1385420850
  O        16.3601440500       16.4394173418        7.4788211497
  O        16.8977032246        3.8826073339        1.2011399878
  O         7.3604306982        5.9889997282       16.7243290605
  O        15.6838604031        2.0266687671       19.0879444352
  O        -0.4182883784       18.6527530246        2.0723588964
  O        -0.3398937524        4.1719136560       13.6999021280
  O         2.0777446173       17.9165415524       17.3413747540
  O        11.7797331155        3.8486280627        3.2339563583
  O         0.8760141569        2.6076828448        7.4820513818
  O         4.6795633935        2.8674577967       14.7066849793
  O        16.9266542820        4.6489185513       10.7334708188
  O         5.4899247331        5.3172509270        3.9919362619
  O        11.6684788213        4.1548862683        5.7917343648
  O         3.9658579046       18.5432333355        9.1104169648
  O        14.4410940644       15.5486756498       15.9356626281
  O        16.8852702789       11.2108702875       19.3003512003
  O        14.4818497928        5.2141516072       20.6666399749
  O        19.0601842193        3.6990947811        5.1644228372
  O         3.3703387010        8.2171389276        7.4668937333
  O         4.1485973796       17.5606470690       19.0340264321
  O        13.1011228067        7.7317953059       16.4086396910
  O         2.0542564526        3.1880824924       14.7032904202
  O        16.0684083844        5.1294690988        3.4661249622
  O        14.2320081820       11.9758939032        2.0614229274
  O         9.3349590211       19.0068936899       20.4887750691
  O         5.7339923014       19.5744719895        2.6926796178
  O        16.9412911814       18.6269869284       12.7239241481
  O         4.7006091666       12.3948471015       15.3442075922
  O         0.5734509260       16.0829943265       16.2715311702
  O        11.1604922878       18.2900350602        3.0926677575
  O        17.9176543423       10.9142782858        2.3787021121
  O         9.6247246936       16.4293349388        1.8841843151
  O         0.4251486300        1.5123032634       13.7321850814
  O         7.4749843110        3.3486627107        4.0316878832
  O         0.5929905909       18.6567014606        9.9864077758
  O        18.0599787715       20.8084538446        1.0039082422
  O         3.1000073626        4.8943533022        1.5847716113
  O        17.6527701730       13.5116282716       14.7813176181
  O         0.0369336146       13.7017740067       16.9075067433
  O        14.6629360437       12.4302612406       18.7223881211
  O         0.6091933839        7.6441463396       11.7550621777
  O         7.9769767830        2.5814151275       19.9236668100
  O         0.0879988649       11.0339634611       19.7086584585
  O         4.0480741479        1.8097367870        9.2029893283
  O        10.0980533379        3.3083087752       15.5374599514
  O         0.7184924384        7.6509981243       18.4873969639
  O        12.9291806363       13.8614357100       20.0917519194
  O         6.0505624609       19.3212410953       14.6538960814
  O         3.3621694451       12.6416745025        1.7314467759
  O        14.3451968764       16.5533313820       18.3770813424
  O         2.5655981071        3.0033839279       19.3071666865
  O        19.1293608032        9.9486750016       14.0617953947
  O         7.1317455110       15.4167480788        2.3087470012
  O         0.3164972890        7.8076736406        3.9058766044
  O        17.4737892264       17.4547482531       10.3708340171
  O         8.8018273131        2.1165955908       17.4969450045
  O        14.0022503826        5.9658662259        7.6633422979
  O         2.2867202156       10.3941089873        8.5317551826
  O         2.4597534411        9.4507691567        3.2921975407
  O         8.2697031439       18.5440212713       13.6848502225
  O         3.3761664383        0.6486133742        6.8369026698
  O        12.3908211579        5.7962006326       14.7487434850
  O        12.3528769340        9.7912231234       19.1093414912
  O        15.1214353893        8.1982028452       19.1582234657
  O        10.1005887338        9.7684108314        1.1770338190
  O         7.1569521599        1.2908857623       12.5444231894
  O         8.6791749510       20.4516270743        6.2978071719
  O         2.6861218239       11.4793541669        5.9678806087
  O         3.4189880302        4.6931840268       13.0755064158
  O         5.6260762470        6.1636938496       18.7684474732
  O         2.1127315004       17.1889867591        4.9249120172
  O        17.4817004726       20.2884041948       16.8628939729
  O         2.5163617957       14.3451365414       16.1092814284
  O        -0.7279684628       18.8450618897       18.6803494287
  O         1.6808428791        5.0352431408        6.4107588999
  O         3.7270001350       20.3185815736        4.2791549690
  O        15.3418952825       18.0088843438        4.0699948236
  O         9.4008561292        4.4116574131        1.9863508813
  O        12.5822852813       17.8818696762       19.7880395969
  O        14.6890690421       16.9733181530        1.7537726180
  O        16.8884867976       13.0099553195       17.3112777948
  O        13.9818797180        6.4524456237        4.3859562673
  O        17.2771777220        9.5701909835       10.4226458709
  O         4.7514803522        8.2531181235       17.3685597201
  O         1.1127696863        5.1493602794       19.2818230026
  O         0.3402419607       12.3193542561        3.6730728130
  O        18.5773177509        6.6561990618        9.7168546613
  O        15.0603522095       18.7933416270       19.3029675520
  O         1.7899342924       10.6786761353       15.8889905843
  O        -0.2637235662        2.9285770400       15.9659359808
  O        14.3423933804       19.1151185416        9.2321209265
  O         5.7727977381       11.4620112106        1.0559884204
  O         8.4534978035       18.2924924734        3.5618299802
  O        14.9034797081        3.4852274399        8.1454818556
  O         3.1846803494        6.6529159924       18.7577237907
  O         0.6200700506        9.8350364039        6.5981375734
  O        12.4084111552        1.6662783133        4.9700132760
  O        18.6535527964       17.6297224453        7.8118380833
  O         9.2251087309       17.9649089946       17.9565150315
  O        17.0969513447       20.0410016513        4.2203891207
  O        18.7549329883        4.2847410792        8.7210796851
  O        18.6976823723       13.0398088798       11.0681414445
  O         3.7201349957        4.9460766828       15.9090069934
  O         4.5224306109       17.1020254010       14.3871983366
  O        15.5322174177       10.6680620377       16.8994484834
  O        16.5730297689       15.7854981337        2.9046732240
  O        16.0852753908        1.0959328186       14.2766403105
  O        15.3239469669        3.7424800842       13.8611767918
  O         5.9304329766        0.3620138104        7.7639544289
  O         1.8843765436       17.7214171698       14.4777194530
  O         7.4660191598       17.2408457523       19.8087297572
  O         7.7714984745        7.8403921315       18.5836265057
  O        13.4081468072       18.0253786009       16.3280516183
  O         2.0889218225        2.5637184646        5.2401394880
  O        16.4178184021        3.0686007662       16.1043900613
  O        14.0593536542        3.7031132685        4.5312359470
  O        -1.2454876313       16.3442111270       12.8801534599
  O        17.7887616504        8.8549883245       20.0431396128
  O         0.3694779052       15.9719167856        9.5394617675
  O         6.0504069290        2.5165503641       17.9422113261
  O         6.5687613186       16.9132891012       16.0381948640
  O        17.1582697214       17.5574121334       16.6012696635
  O         4.5940835845        2.9456742568        6.0191084960
  O        15.9657997678        1.3341778120       11.5287875714
  O         2.7908016708        6.7731484464        3.9121298718
  O        18.0686402194       21.1128585665        8.7884319366
  O        -0.0132936460       18.6179010079       15.9802218857
  O        15.7271466773        8.6784770697        2.3516766906
  O         1.9107560746        5.6704325129       10.5140937357
  O         1.1665230593       20.1266553372       19.8304365826
  O         0.7665949944       12.4408774336        7.5070240920
  O         6.7831316028        4.6500210777        1.8283477492
  O         2.8992238559       16.0590969719       12.5799299621
  O         3.4327125937       20.4768910079        1.6256319834
  O        11.2952041383        3.5452571612        0.5336614979
  O         3.4324875263       20.0687224525       18.3532074414
  O        16.6399603158        5.6510210011        8.2734423013
  O         2.6469489496       14.4689295393        4.6201425335
  O        12.4905923163        8.9695828001        2.2715984595
  O        12.9545990531        5.2890114932       17.3413978518
  O         8.5585250991       14.8273575230       19.3628912067
  O         6.0335991679        9.1345466004        4.3549046888
  O         7.4559112899       19.7121091130       18.8347721647
  O         8.1903114813        5.2496826781       -0.2888593899
  O        14.3134454892       19.0115394379       12.9058549426
  O         0.9047461930        3.4686381494        2.1460711304
  O        18.6574825459       15.4219028476        6.3102680452
  O         8.2167709718        1.4389948913       15.0495176015
  O         8.9747772049       10.4755713356        5.4717573650
  O        17.1517137134       12.5421271317        4.5534488126
  O        18.1160632254        6.5568049917       16.9910309820
  O        19.0576063046        8.9590559350       16.5060073697
  O        14.0166296811        2.0991301775       15.6736652695
  O         4.3921413569       18.5295643966       16.5821146170
  O         0.8246429185        2.6341671552       10.1991862773
  O        14.1100401552       15.5926790923        4.2049918583
  O        17.5615429040       17.7191405518        5.4855017807
  O        15.8221850543        4.9646318329        5.9827107245
  O        10.2239592685        1.9376519640       22.0554873133
  O         5.0514187449        2.9294467171        2.8624457244
  O         1.2625504705        6.6753236472       15.9291073711
  O        18.5503354509       11.3834332806       16.1312822067
  O         5.0897745360       13.9227252313       -0.0822873680
 Na        13.5604764554       14.4913730055        6.3955364226
 Na        -0.6519982668       18.9049648200       13.9962111604
 Na        13.9816971812        3.2314315865       17.7872415816
 Na        14.2589086071       17.6442138603        7.3484677764
 Na         4.1156684516       13.2051045950       17.3207182755
 Na        13.3991344480       19.3856001148        3.8339212264
 Na         4.8662709199        3.9986724098       19.5959601787
 Na         2.3592244069       18.5686557660        2.9025318700
 Na         5.8818639749       15.9898037858       18.1289909118
 Na        19.1191733991       21.5060699688        3.4368705118
 Na        19.2316810659       17.1448727132        3.9117201631
 Na         3.4935974071       15.6690618935       20.3368147521
 Na        14.7086304490        5.1478153015       15.7416024434
 Na         2.4207813214       19.9023609037       10.5913796094
 Na        11.6590330664       18.5232882462       17.6786226919
 Na         7.3941258354       16.5538247145       13.6702124860
 Na        13.4083370279        3.2254575221       20.8619293797
 Na         5.5772309138        0.0944796524       11.3311565905
 Na        19.9177387673       13.6801048378        5.4466560792
 Na        11.4418947852       19.7120945181        1.0583383980
 Na        17.1630118409       14.2112500104       12.5142077934
 Na         2.1490935623        9.8732676505        0.7523115050
 Na         4.4675740985       11.1831896313        9.6685197628
 Na        12.1020954476        3.4493511089       14.6058771075
 Na        12.4756315001        4.2080606463        7.9888407983
 Na        14.1847341196        8.6965088614        4.2405778115
 Na         1.0139346069        6.2633599072       13.7207779074
 Na         2.3573372266       12.6617655777       14.8993904020
 Na         4.1409116983       17.6680748739        5.7543254303
 Na        18.1480735685        5.5744772481       19.0487365123
 Na        11.2537803145       15.8935317775        0.3535018818
 Na         1.5478842295       16.0658574931        6.9358718097
 Na         7.9459439786       20.6876606585        2.4902605220
 Na        15.6520827005        2.2872833031        3.6167085046
 Na        18.7730427811       11.9803732723       13.0608449982
 Na         9.0309950427       15.6906082994       17.2376046941
 Na        16.6581881680       18.9740892018       21.3969640340
 Na        12.8036307626       19.4945465518       14.5633793433
 Na         2.6913419061       17.0915669430        9.9658284984
 Na        14.6034968457       17.0998354879       14.1535890196
 Na        13.6836490275       14.8034359771       11.9112625405
 Na        18.2288766179        8.6139755593       12.3586800046
 Na         4.8075042353        9.8609442519        2.5665337151
 Na        15.1549463133        5.2003203640       12.1698028179
 Na        10.7604811467        9.8678694177        3.6402956194
 Na         7.2118045612        8.4308104560       16.1530019590
 Na         5.5879798962       18.8971458239        0.5948836742
 Na         7.2733877208       13.0062447573       -0.0093949819
 Na        16.2606658971        8.0805602519        8.8785637136
 Na        11.7061333457       16.1979793319        3.9175520720
 Na        16.6183258583       19.1037903323        8.6999279866
 Na         5.0448156401       14.0547357615        2.7882258212
 Na        17.4640988830        2.3101754000        6.4410362995
 Na         9.5496019321       18.3297206981       15.6676799239
 Na         6.2547348030       17.3040699037        3.3769965474
 Na         4.4980395186        6.5052772248        2.3194657699
 Na        17.9238870096        5.7823491889        6.2531267951
 Na        17.9803023961       11.4231523474        6.6142457864
 Na        17.6380838522        8.4390596412        3.4959501222
 Na         2.6139179127        4.2633323057        8.7992253205
 Na        12.9745932635       13.8769918467       17.7525710910
 Na         9.8406114009        8.5998091673       17.9728494701
 Na         3.2763338310        4.3047809022        3.8618561238
 Na         1.3621216598        7.4281763181        6.5455098805
 Na        18.8970936052       14.0865014713        8.5779272851
 Na         1.5312841485       13.7564549983        2.1069214851
 Na         7.5173275171       11.0155817096        3.2492764027
 Na        19.7835090169       10.0134958293        4.3836935218
 Na         0.5390684995       15.2409867473       11.7203987217
 Na        11.8382115929       19.1799564396        8.9749174890
 Na        16.6909946562        8.7175323846       17.4134572264
 Na         1.5371160987        3.9991978673       11.8640060304
 Na        16.4810426245       14.4805830152        5.3838344216
 Na         9.6095126986        4.3872975512        4.4149546796
 Na        -0.7162927410       13.3946790611       19.3167892660
 Na         5.6359524198        3.4277769800       12.5240135062
 Na        10.1400822823        9.7368614224       10.0229205985
 Na        10.3443029412       20.2070544388        4.5016817645
 Na        20.2733390132       19.3318954911        7.5342900160
 Na        15.8209100409       15.5953634221        9.5261951463
 Na        16.1276619696        2.7700943260        9.9395822970
 Na         3.7568254479        5.9314326801        5.7915188842
 Na        16.3676562617       16.1433927557       18.0685371664
 Na        10.7125683476       11.6389845856       19.6824409853
 Na         5.3546594977        1.3851226072       16.1698597409
 Na        12.3405489731        6.3542596462        5.9497940973
 Na         8.8697255521        3.0367374373       13.0058826039
 Na        11.1711058601       21.7001526155       17.9517824785
 Na         6.4563778122       14.3228848091        7.8427319302
 Na        10.6940953940        5.3966829544       18.7271628555
 Na        12.5959094613        6.5558966717        2.4690429702
 Na         5.7415080740       17.2237562559        8.8289002665
 Na         4.1971165823       14.8700971645       14.6098616648
 Na         1.3366878631       11.5086963620       17.8907172126
 Na        12.8705733430       13.3492340479        3.1757486952
 Na        13.8578044841        1.5624128345        7.4658967026
 Na        10.5017906335        2.3676541376        6.8724522271
 Na        -0.7254685703       20.1841908802       11.2551679779
 Na        17.3654402615        3.2803658253       12.7700974284
 Na        17.5863794836        5.2232530696       15.2615384408
 Na        10.0171762900       11.1726890352       14.4765121437
 Na        -1.2332437331       15.7203104725       15.1680376446
 Na         2.7716954535        1.0037536106       14.0342875227
 Na        12.8418714937       12.7787971818        9.2898416565
 Na        19.7707578373        5.2263812145        3.5030232431
 Na        15.1477288106       13.4000415544       15.6605114577
 Na         0.1635591253       16.5193059403       20.1829049858
 Na        15.5488060990       11.2271000065        3.8828695442
 Na         3.8092067374        9.4503470862        5.5792860324
 Na         2.7407465901       11.7856463134        3.7220953157
 Na         1.7953741446        4.4409127004       16.9338722448
 Na        18.7708377871        9.1988141373        8.6306450861
 Na        16.6843344519       10.4189054292       14.7464956548
 Na         5.9268076592        4.1773921083       16.3724126751
 Na        13.3443812762        6.6908133329       18.9351050898
 Na         6.4562196293        9.6859307850       -0.3440976971
 Na         1.2678499664       12.2535065752        9.9071525591
 Na         9.0548808711        7.5400842979        1.2058588929
 Na         2.1343473355        9.4596941313       12.3612547761
 Na         5.5113810049        3.4362465062        8.6363013505
 Na        15.0046831693       19.2646466611       17.0154615636
 Na        13.7383640767       20.8676763538       10.3667476630
 Na         7.1952450844        7.9337494246       12.0035070050
 Na         3.8285419530       10.3115753131       16.8825035217
 Si         1.0254721174        3.6055273771        6.0647168944
 Si         8.1141153572        4.1714855958        0.9353329099
 Si         4.5018039900       12.4094447810        0.4803557343
 Si        17.7764922743       16.7090861003        6.7812265213
 Si        17.1424148231        2.6200511389       19.6487472164
 Si         1.8487212368        7.9126680642        3.2716168828
 Si        18.1917058508       12.3605787712        3.3271945379
 Si         3.5050770170        1.7927759535        5.6717051413
 Si         6.1799345503        4.0993946581        3.2925580726
 Si         9.5276901312        1.8962728573       15.9794542915
 Si        17.8221852579        2.5229728188       16.7696585752
 Si         9.6541071015       17.9831095915        2.5288509792
 Si        16.4681604673       18.8730804963        5.0770550014
 Si        14.3249681412       13.0793365279       20.2345435151
 Si        19.0037264351       17.4272927408        9.5543036669
 Si        10.6881120591        3.2931469624        2.0195543106
 Si         8.4390342360       18.4342502233       19.2187069986
 Si        12.2035030181        6.2901712050       16.3294856007
 Si        17.7459248349        5.2512268129        9.5176251318
 Si        11.5360045201        8.9659141853        0.9136099388
 Si        14.8093190638        5.1556735436        4.6446437985
 Si         3.1405567179       17.4504093073       13.4047019926
 Si        18.2049056259       12.9424508819       16.1702282326
 Si         2.6497871815       20.7831217019       19.6253155597
 Si        14.0364868611       17.5000293637       19.7280771007
 Si        14.4961812553       20.3668028294       19.7343421056
 Si        13.5517051356       16.5518668305       16.8325201178
 Si        18.0994943632       18.7628747148       17.1520122681
 Si         4.6017214057       20.6376566008        2.8513001660
 Si         0.8916135895        6.9367032816       10.3922084385
 Si         8.1901224164       15.7919616607        1.2188931205
 Si         3.4836876962       18.4351856046       17.9209115201
 Si        18.0981444669       10.4887862636       20.1518128980
 Si         7.4463758539        1.9448296102       18.4343402559
 Si        19.5216972124        7.3352371822       16.9132377963
 Si        16.9553384325       14.8021432243        1.5849030153
 Si         2.7229089556        8.8594103374        8.8730137016
 Si        16.0156267415       11.6879899740       18.0028566972
 Si        19.3231818088        2.7314596695        8.8779131982
 Si         0.2859832428       10.1097330223       15.5667381261
 Si        15.7068438499       19.8072171420       12.7844743301
 Si        15.2414407538        4.9747476570        7.6071559395
 Si         3.5661368827        4.0351187538       14.5825278240
 Si        15.3650179683        2.4556355991       14.9098810815
 Si        -0.3091156661       19.5341764090       20.1178995492
 Si         1.3447693307       14.8663258051       17.0905600851
 Si         1.6580829889        6.7409072498       19.4667190482
 Si         7.2330344234        6.4297035706       18.2717377903
 Si         4.4128693863        0.4990498134        8.2578743917
 Si        15.9429375987        5.2162283741        1.8328898018
 Si        12.4498587227        3.2741611258        4.6885630558
 Si         2.5343585475       15.9772529954        3.8545828587
 Si         0.3954363833        2.9099687653       14.3905425684
 Si         4.5680221642        7.4973257808       18.8130528598
 Si        17.0119694902       17.1360801479       12.0491658400
 Si         5.4579488046       17.8970433194       15.4798766778
 Si         1.5338004882       11.0517345724        7.0779416463
 Si        15.0849007887       16.5436847571        3.2706299654
 Si         7.4118684353       19.8981092887       13.9221243727
 Si         1.8868727631        4.0540188592        1.0821805865
 Si         1.2200271883       17.5501161237       16.0046681240
 Si        16.2806192494        8.0225445471        0.9620180526
 Se         4.4251441194        8.5232252575       13.6351613812
 Se         6.5718299442        5.5133188585        6.8667397944
 Se         5.9013672060        5.7061023913       10.4272193155
 Se         8.4513089280        5.6962723129       13.1212690721
 Se         8.1543173612        2.9749847011        9.5980543638
 Se        11.1300536951        1.5003312529       12.5626550243
 Se         2.8032583701       12.3318437682       12.1490760898
 Se         6.2598312331       12.8676468198        5.2086594194
 Se         6.9568311950        9.9506456390        8.7598788674
 Se         7.4694922790       10.9439230081       12.8507068725
 Se         9.5403354396        7.1817783970        4.0262827546
 Se        10.3301406518        7.4061114746        8.5004062716
 Se        11.2012970103        8.9236654521       13.1206218978
 Se         8.3786294157       11.1217721854       17.0017862574
 Se        12.5256311874        4.8881550286       11.1071914097
 Se        15.8552161250        7.7670706068       13.8788818547
 Se         6.6951770642       16.5963225512        6.1478347887
 Se         3.7097047639       14.5822239400        8.5829995287
 Se         6.6781287293       14.9090147970       10.9996253693
 Se        10.0126791702       13.5546846847        3.8967685229
 Se         9.4139245770       13.3803100359        8.3376444424
 Se        11.0777529799       12.4122894307       11.4326132405
 Se         8.9876444786       14.4474952839       14.5842619418
 Se        16.5049658992        8.8812402017        6.0818775299
 Se        12.8864480305       11.3063765602        5.5744582143
 Se        15.2370274409       12.0409637704       12.7236130932
 Se        12.5616052153       12.0247950668       15.8833893267
 Se        13.5564258921        9.4347458133        9.5808708787
 Se         8.6800489315       17.7961740902        9.8513996376
 Se        11.7933019126       16.6195558880       12.9006154544
 Se        11.2132055883       17.5472637023        6.5817653603
 Se        12.9142968957       15.7162593412        9.3190835855
 Se        15.7153835330       12.7632423360        8.1893597219
 Cd         5.5722207608        7.4559855858        8.4514286513
 Cd         8.5426092832        5.5234257940        8.6197923285
 Cd         3.8378544366        6.4627067990       11.6717317291
 Cd         3.5363498519        7.1909631469       15.7031337725
 Cd        10.9079267232        2.8533104814       10.2919954448
 Cd         8.0585299923        0.5871025336        8.4930915481
 Cd         3.8573870638       13.4425908246        6.1665883340
 Cd         6.8623670504       10.5005502465        6.1098567223
 Cd         4.8862602167       11.2972040069       13.4773186881
 Cd         6.8141111591       12.3419417052       15.3191846404
 Cd         6.8601273464        7.2962865865        4.7973591247
 Cd         9.5329616456        8.5373046769        6.2817292914
 Cd        10.9248778302        6.1313647703       12.8186449166
 Cd         9.2245402202        5.5053932715       15.6773324758
 Cd        12.8964732110        6.9245434670        9.3971239070
 Cd        13.3265124560        8.1138123214       14.2333108590
 Cd         7.8420362900       14.9503579093        4.5875126268
 Cd         4.1116042367       14.4165774014       11.1873136666
 Cd        10.2061232019       14.6697704545       12.2241971784
 Cd         6.8138679858       21.8212473322        5.9640007274
 Cd        10.3028225040       12.1480055519        6.1155815309
 Cd         8.0224521769       12.4230442587       10.6502200468
 Cd        11.5104547541       15.0825890090       15.1871042981
 Cd        14.1915154050        9.9360740504        1.1777737038
 Cd        14.7057526933       10.4437150820        7.3078868103
 Cd        12.7598460080       11.3895966405       13.3467273187
 Cd        13.2034584282        9.8239575509       17.1074282472
 Cd        15.2825917390        9.5938189325       11.4738161420
 Cd         8.5721043656       18.3086351364        5.8476876198
 Cd         9.7939208948       18.7271493051       12.0052207691
 Cd        13.9035247774       17.7090708569       10.7448287743
 Cd        10.2610104902       15.8693999896        8.4932088850
 Cd        17.1652345022       11.7909134665       10.2696568248
