438
 i =     6900, time =    13800.000, E =    -10932.3427607617
  O         4.2404413125       16.2521510422        3.6853287992
  O         3.4874274966        8.7778691530       10.3794610677
  O        14.0998867497        1.1033429665        2.0008605597
  O        12.0158107020       15.7186807454       16.9258636082
  O         1.6727887784        7.3576494680        1.5459711726
  O        15.9398425991       16.3255129285       11.7804457092
  O         3.9477371210       11.3380911238       18.5212678767
  O        17.4262663332       15.5894904251       19.9364783398
  O        15.4796809424       13.8604980747       20.3859427089
  O         1.8984064293       15.7150854444        2.4113041696
  O        11.2964198551        7.1785131056        0.8364555784
  O        17.7988638241       13.5287066612        2.2294709853
  O        10.7997083869        6.2018122034       16.9177556908
  O         1.4122392882       14.8471243085       18.5878588030
  O        18.0250235658        2.8823964856       18.3982438028
  O        12.2421554877        1.7110951929        8.5027801299
  O        13.6613592352        1.6240904279       18.7029736490
  O        17.0822023107        6.2330334626        1.6399947906
  O        10.7975730766        0.9620824872       16.1655966806
  O        15.6107816026       19.5703852635        6.0997741952
  O         4.7236368393        8.2493044795       20.0570841537
  O         3.2245398288       18.8267499032       12.4899240097
  O         1.3349545320        7.8625621139        8.9703876897
  O        16.3021856239       16.3624106572        7.5462570973
  O        17.5362923179        3.6632931472        1.5202001281
  O         7.6402685405        6.3854466060       16.8853389077
  O        16.0787483413        1.7833876085       19.7278458469
  O        -0.2631545660       18.1519177636        1.9151585587
  O        -0.2011260034        4.2141595231       13.7355624467
  O         2.4452187704       17.6621117407       17.1230168938
  O        11.9343325854        3.9855495198        3.2344550796
  O         0.7515992154        2.6976835399        7.6355943105
  O         4.4639020045        2.8624062597       13.9700293158
  O        16.9245362556        4.6133641126       10.8259815866
  O         5.4044285681        5.3267042323        3.7783809935
  O        11.4692116037        3.9630608604        5.9690146353
  O         4.1525441302       18.7892989684        8.9338222473
  O        14.6166171077       15.4424156206       16.1370066584
  O        16.9082906741       10.7811553996       19.3499383794
  O        15.2052454575        4.6969177189       19.9708093032
  O        18.6332929032        3.3340893718        5.3085493032
  O         3.5178404534        8.3388576230        7.6028528319
  O         4.4017920407       17.3733061032       18.7023171081
  O        13.1782527119        7.4775223231       16.4505054705
  O         2.0457024134        3.2383111109       14.9075960327
  O        15.7586648229        4.5594738205        3.2858189287
  O        14.3189040988       11.6243194903        1.9233311602
  O         9.5183968504       19.0489626265       20.4454455437
  O         5.8288606779       19.6753405761        2.6412835398
  O        17.1156414858       18.6608110758       12.6502570619
  O         5.0646738709       12.5713250855       15.1813825865
  O         0.7406816451       15.8950650583       16.1025369290
  O        11.3693524134       18.2866117451        2.8306693436
  O        17.6506650643       10.8198863355        2.5949554639
  O         9.5901419293       16.4705510394        1.7427665396
  O         0.4396070995        1.6195313040       13.5555606231
  O         7.3322236892        3.1856599096        4.1840948236
  O         0.9203157343       18.7464841606        9.7085517488
  O        18.6003125872       20.6780832202        1.1859189872
  O         3.2819163839        4.5275096613        1.1404022635
  O        17.4700090806       13.5460756255       14.9340565690
  O         0.2030396261       13.3844164121       16.7404199114
  O        14.7717413458       12.2984372007       18.5285035285
  O         0.7980939897        7.5422521374       11.7113735943
  O         8.2236486590        2.6972732844       19.8963398145
  O         0.1841943165       11.0757999254       19.9980737493
  O         3.8813069623        2.1722934477        9.0869067177
  O         9.8422737048        3.1519061165       14.9145682513
  O         0.6219533898        7.5055231920       18.5348608422
  O        12.8591621253       13.4014656652       19.9423769109
  O         6.1991481413       19.0788787942       14.1333599727
  O         3.1903041690       11.8398616949        1.6457134943
  O        14.2668247587       16.4905000764       18.4322442981
  O         1.9380493044        2.5486416074       19.1242328601
  O        19.6443589441        9.5281488286       13.8550089389
  O         7.0945434719       15.4046941259        2.2212285260
  O         0.3368915393        7.7738440704        3.9751665361
  O        17.8486229264       17.6519840176       10.3327925852
  O         8.9516648006        2.5800863498       17.3357738360
  O        13.7892909790        5.9475670759        7.4920363572
  O         2.1048047760       10.3920703881        8.6850132197
  O         2.4714022816        9.1632632776        3.3454186252
  O         8.6129670144       18.3703406295       13.5554090176
  O         3.4057777467        0.6986880541        6.7530101437
  O        12.4526280691        5.5931210820       14.8290598248
  O        12.5544605821        9.3475992561       19.0730320091
  O        15.5691674320        7.9175218226       19.4391375992
  O        10.3625993909        9.6240325503        1.3535424084
  O         7.2305234948        1.3465668007       12.6961594889
  O         8.6282303472       20.3789431859        6.2107771098
  O         2.5896716459       11.3868985036        6.0851683422
  O         2.9591123517        5.0104490064       13.1148848252
  O         5.6884049370        6.0448006105       18.8090936743
  O         1.8933929698       16.8951870525        4.7914954616
  O        17.5690176340       19.9625302022       16.9409931979
  O         2.6936032760       14.1429929122       16.3522203170
  O        -0.5391120645       18.7277625015       18.7025018408
  O         1.3574056189        4.7636100268        6.0999700093
  O         3.5708587726       20.3489045467        4.0601975135
  O        15.2031684353       17.6109390194        4.3718078908
  O         9.5807287188        4.4041239991        2.0085191141
  O        12.4690631289       17.9091244873       19.7004544749
  O        14.4802814276       16.8790973070        1.6831257792
  O        17.3273513461       12.4720234450       17.5282233963
  O        13.7670307105        6.1760389312        4.2385604296
  O        17.1395849646        9.5945732775       10.5164427405
  O         4.7898140212        8.0953469189       17.3274832810
  O         1.0253252987        5.0383658413       19.3815804362
  O         0.3100972417       12.1674385328        3.5348468273
  O        18.5720141092        6.5850420718        9.8590026663
  O        15.1044002044       18.8658521622       19.4392215406
  O         1.7057463341       10.5740060375       16.0023574271
  O        -0.3052281411        2.8012352782       16.0337375942
  O        14.3153034085       18.7155235526        9.3887600026
  O         5.8045876877       11.4163636237        1.3136579861
  O         8.8054873517       18.2851502535        3.5307287814
  O        15.0974432064        3.6012656310        7.9468781607
  O         3.0990015838        6.6042863795       18.7403882911
  O         0.5243813149        9.8197155189        6.6451107402
  O        12.5556379298        1.6165956879        4.9097671724
  O        18.8007136953       17.7891787340        7.8025929315
  O         9.3636167783       17.8024166933       18.0595031308
  O        16.9363891510       19.7421995603        3.7555780929
  O        18.3293279137        4.2488194374        8.5391060870
  O        18.8751138192       12.9221275431       11.1205263926
  O         3.9868661396        4.8911843994       15.6657185272
  O         4.5355122264       17.1356709230       14.2337792646
  O        15.6080353148       10.3621908382       16.9465809011
  O        16.2308101426       15.5101430278        3.0567084747
  O        16.2863785292        1.1108983805       14.2544887265
  O        15.9346326027        3.9821860415       14.2017165525
  O         5.9012686933        1.2328299565        7.7866143182
  O         2.0104349218       17.5488280879       14.4235342567
  O         7.4580268101       17.4921916949       19.9106202038
  O         7.7595730644        7.9883207860       19.0657676162
  O        13.5088176212       17.9235108224       16.3803200188
  O         1.6444185887        2.1258956868        5.3181113473
  O        16.3771768185        2.6944358811       16.3182808458
  O        14.0146203086        3.6670837885        4.9067225020
  O        -0.9183773684       16.4101324449       12.7497352353
  O        17.9633940035        8.7751572560       20.3036236775
  O         0.5074465497       16.0571614743        9.5153024577
  O         6.3222285023        2.5639371174       17.8523047242
  O         6.5689119319       16.7989388363       15.8255312175
  O        17.3433392463       17.3139708086       16.8798281096
  O         4.3181147958        3.0272212400        5.6520947414
  O        16.1848896372        1.4737521582       11.5211316257
  O         2.6679662529        6.4654500545        3.8829159405
  O        17.8947759289       20.9250074911        8.6293803360
  O         0.2349373211       18.4304480082       16.1135041564
  O        15.9290053106        8.2459098362        2.6891384205
  O         1.8829969067        5.5877711652       10.1898769316
  O         1.6420400471       19.4787615639       20.1234296368
  O         0.4249106254       12.2808109414        7.7246079296
  O         6.9834157269        4.4608378202        1.8769702634
  O         2.9967129275       16.1435338618       12.4054639891
  O         3.7970132571       20.3841665785        1.3734243771
  O        11.5118948611        3.1651888519        0.7342972418
  O         3.3702477278       19.9202550992       18.1080102304
  O        16.3983245581        5.9005748667        8.4561516262
  O         2.6340642016       14.2580309801        4.4540411759
  O        12.6090880440        8.9586966080        2.3452032907
  O        13.0983214000        4.9348044688       17.3363098925
  O         8.3586869077       15.0783574444       19.2705290610
  O         6.0909997543        9.0923499891        4.4004594624
  O         7.7608302264       19.8439262271       18.5014473067
  O         8.2125054859        5.3239708205       -0.2115542827
  O        14.5435563656       19.0004583422       12.9817912720
  O         1.1000532487        3.4517542379        2.2129868918
  O        18.6840397239       15.5088523888        6.4101327881
  O         8.2432209594        0.9675537057       15.2416060660
  O         9.2353809381       10.5069589126        5.3304404771
  O        17.3496098073       12.5673736719        4.6769749917
  O        18.1616403490        6.5119068304       16.9640084738
  O        19.1521836466        8.9161365420       16.5438513760
  O        14.0886788040        2.1831138118       15.2699551783
  O         4.7992391454       18.8027119068       16.3048803684
  O         0.3775210144        2.6032783223       10.2091758738
  O        13.5681344064       15.5129739159        3.7557368444
  O        17.5118431980       17.7628188807        5.5715472231
  O        15.9045204206        5.3028517508        5.9190898380
  O        10.1504524467        1.9870968208       22.2353077737
  O         5.1471052904        2.8240098263        2.8195482719
  O         1.2562762558        6.6908919606       15.9749619579
  O        18.5863216089       11.2741481687       15.4244866892
  O         4.6958657847       13.6591744506        0.3092469341
 Na        12.8349766060       14.9551118459        6.2122899549
 Na        -0.1136761602       18.6656767623       13.6642199791
 Na        14.6574511531        3.3594766804       18.0302615798
 Na        14.4540136688       17.8801076000        7.0833898721
 Na         4.3785314385       13.0780602764       17.4197131370
 Na        13.3994800838       19.2295550231        3.6935521967
 Na         5.0481811148        3.6164618777       19.3835780010
 Na         2.3576449798       18.3334867634        2.8226513671
 Na         6.6956980505       16.0145187929       17.9625471757
 Na        19.1732285483       21.2071822558        3.4530718709
 Na        19.2362829855       16.7751772410        3.8453245807
 Na         3.3550377777       15.5575229146       19.6730731090
 Na        14.9238863685        5.7188447629       15.7381585013
 Na         2.2219452488       20.5266112632       10.4322213903
 Na        11.6117356697       18.5215706693       17.5685891062
 Na         7.5247441265       16.5189214961       12.9937182763
 Na        13.5438407785        3.5108507951       21.0762388393
 Na         5.4720418888        0.0790494983       11.8400933972
 Na        19.7665690923       13.5888378031        5.6418549554
 Na        11.8045845621       20.0486710400        1.1952055078
 Na        17.1884341458       14.3258767483       12.4361250094
 Na         2.3072219696        9.6722146131        0.9443528898
 Na         4.2314139063       11.0437330811        9.6629627010
 Na        12.1215578916        3.4008474856       14.6003823498
 Na        12.6842900185        3.8904747230        7.8144637371
 Na        14.1822919557        8.4817879536        4.0464817118
 Na         0.9327632068        6.4484983099       13.7439802664
 Na         2.3002183267       12.3793120688       14.8607978462
 Na         4.1177523726       17.7092234411        5.4539282688
 Na        18.2143728905        5.3382567876       18.9374379701
 Na        12.1977171287       15.8209110275        1.1334620261
 Na         1.4184558730       16.0872438183        7.0784544583
 Na         7.9971021888       20.5424164026        2.9098317604
 Na        15.5734141861        2.0900857777        3.5593667880
 Na        18.5319580674       11.5264734246       13.0612384071
 Na        10.1483008940       15.7894998852       18.1351034161
 Na        16.7372545517       18.1577958193       21.0828791096
 Na        12.8745835055       19.5320630312       14.6413194347
 Na         2.7815648321       17.3715890304       10.0420780706
 Na        14.7577356758       17.0411923136       14.2216438070
 Na        13.2007678574       13.9362328960       11.6501910144
 Na        18.3074444032        8.5137658848       12.2422190691
 Na         5.0620706784        9.7228699228        2.6285034936
 Na        15.2127402312        4.9594806049       12.3513825347
 Na        10.8892096755       10.1100623109        3.7304528282
 Na         6.5905545640        8.1115314346       15.7343480749
 Na         5.7318401605       19.1414732119        0.5669172641
 Na         7.0722002120       13.1782950041        0.4821258025
 Na        16.0190664874        8.1473659621        9.0788741240
 Na        11.1679534875       16.0498316052        4.2199254190
 Na        16.5423741572       18.9343825506        8.6829391949
 Na         5.1718111670       14.0587582250        2.8266022046
 Na        16.7914151652        2.3511835672        6.4974331925
 Na         9.2955340591       18.0690250359       15.7932866438
 Na         6.3769195607       17.5527985170        3.2861565075
 Na         4.3743300058        6.4037591139        1.9311389771
 Na        17.9598050222        5.4307968510        6.2571865701
 Na        17.8237374629       11.3139653110        6.5375630655
 Na        17.6919102008        8.8201107373        4.0411619040
 Na         2.4357983391        4.1021773270        8.5906951553
 Na        12.9136666945       13.7265821625       17.5776367282
 Na         9.9794935564        8.1517113837       17.6421205796
 Na         3.2519928531        4.3455115931        3.3791783931
 Na         1.2259202976        7.5388940280        6.4565420818
 Na        18.5822440611       14.3352951047        8.4329514162
 Na         1.6200690706       13.5324805289        2.0484118015
 Na         7.9287070690       10.7669686022        2.9793829917
 Na        19.9975264756       10.2094680005        4.4493114265
 Na         0.8449387261       15.1471256704       11.7479051783
 Na        11.8731948506       18.9833486833        9.0381054051
 Na        17.2039958326        8.5011256430       17.8408366932
 Na         1.1365610125        3.9587891207       11.9154946934
 Na        16.6048770958       14.3888439127        5.6498482755
 Na         9.3494982088        4.2914332919        4.6946451325
 Na        -0.6254462515       13.5658320528       19.1521790306
 Na         5.9445216503        3.2810738433       12.5142420489
 Na        10.4928358597        9.5612270025       10.5922818644
 Na        10.5422332688       20.0079952178        4.5383056559
 Na        20.2108632807       19.7045745526        7.4245549500
 Na        15.7480632288       15.7186172749        9.4589609374
 Na        16.0371526725        2.6193059768        9.6638733774
 Na         3.8287691153        5.4592583807        5.7018063438
 Na        16.1489117359       15.4922148208       18.0382606503
 Na        10.8926059529       11.2244056589       19.1373697662
 Na         5.4797427334        1.9086753923       15.9444223026
 Na        12.2978763743        6.2626942006        6.0557307573
 Na         9.0965450969        2.9437388842       12.7274116976
 Na        11.5857636079       21.9328818673       18.0494296843
 Na         6.6834995500       14.1260769694        7.5046343918
 Na        10.8255402615        5.4612930416       19.0672082325
 Na        12.0107556571        6.4362434604        2.8552997527
 Na         5.9311511062       17.3732165410        8.6088852061
 Na         4.0858328664       14.8302446402       14.7113592029
 Na         1.7389625158       11.4990690175       18.3623791358
 Na        12.7270103976       12.9210533772        2.9982769540
 Na        13.6889745808        1.1994067803        6.8633569975
 Na        10.6144184124        2.0229457298        6.9855850635
 Na        -0.6470878219       20.0661845318       11.0829760969
 Na        17.5026796047        3.1023904110       12.4438207391
 Na        17.7101061663        5.1919065281       15.2408495517
 Na         9.8813570213       10.9463886061       14.8213566408
 Na        -1.4778183683       15.8972825021       15.1828839272
 Na         2.5699463015        0.9947855808       13.9266539470
 Na        12.2584341873       12.6901658245        8.8267388071
 Na        19.8003392328        5.1738526068        3.5676422903
 Na        14.9404424510       13.5147079008       15.2745938788
 Na         0.2583094346       16.3491871718       20.0173634994
 Na        15.4692565830       11.2730325203        4.0258436961
 Na         3.9065519586        9.5203131088        5.5352529109
 Na         2.9272530823       11.5680098868        3.7176116150
 Na         1.8504497719        4.2257799395       17.0485410911
 Na        18.7551779385        9.3426220104        8.7545499585
 Na        16.4261873641        9.8829697921       14.9432627396
 Na         6.0549503202        4.7779487007       16.5748452090
 Na        13.7706815810        6.5716171217       19.1104679238
 Na         6.2698486953        9.9197109203       -0.2223311712
 Na         1.2901242606       12.9805389655        9.6985775207
 Na         9.1079129622        7.5477619065        1.6590739206
 Na         2.1412832330        9.3570288280       12.2333753132
 Na         5.6359834074        3.3697092416        8.8213993015
 Na        15.1267802188       19.5311182191       16.6593640633
 Na        13.8557276950       20.6158499596       10.6503508354
 Na         6.9261554725        8.1798687012       11.9713883953
 Na         4.0958975735       10.2913869727       16.4804527608
 Si         0.7234933000        3.3248521833        6.0455570456
 Si         8.3004476470        4.1950709587        0.9903632230
 Si         4.4250349140       12.0212601536        0.6060589986
 Si        17.8014435756       16.7689628541        6.8612385346
 Si        17.5912924267        2.3749706663       19.8784298888
 Si         1.7971288280        7.6990052895        3.3114411036
 Si        18.1371349118       12.3120632868        3.3248626283
 Si         3.3140956043        1.7509552269        5.4958252079
 Si         6.1938527990        3.9983636221        3.2407808270
 Si         9.5500112614        1.8609059597       15.8584660562
 Si        17.8289851758        2.2007502365       16.8723056251
 Si         9.8947716170       18.0455286154        2.3444246575
 Si        16.3463774414       18.7914199377        4.9087660135
 Si        14.3283295513       12.7378256521       20.0576434936
 Si        19.2587849574       17.5361182361        9.4149122881
 Si        10.8008265934        3.3048420669        2.1785293742
 Si         8.5982372995       18.5525869141       19.1743306962
 Si        12.2654635041        5.9570796906       16.3826576924
 Si        17.5375641468        5.3417215870        9.5491817060
 Si        11.6444954947        8.7763775065        0.9959381401
 Si        14.8316191199        5.0660687457        4.5998481965
 Si         3.1846892919       17.4179254553       13.2684696209
 Si        18.2343259713       12.7219912540       16.0638951223
 Si         2.7026504762       20.4537831016       19.5187662784
 Si        14.0026981251       17.5992994839       19.6126282996
 Si        14.6070637180       20.3739374077       19.8493293233
 Si        13.5203497694       16.3850265782       16.8423264028
 Si        18.3255240252       18.5170652777       17.1884845859
 Si         4.5855567235       20.6462208854        2.8318117379
 Si         0.8467739804        6.8248746954       10.2640770225
 Si         8.0766751608       16.0402750839        1.1037963226
 Si         3.8616829150       18.3459720444       17.6158013147
 Si        18.1355757260       10.4406034767       20.4084658829
 Si         7.7136014462        2.0319029453       18.3090758946
 Si        19.4630673449        7.3346520166       16.9673521949
 Si        16.7065375470       14.7249192254        1.6450164975
 Si         2.7138174306        8.8050294974        8.9268318531
 Si        16.1522383954       11.3969114079       17.9867783625
 Si        18.9506525549        2.7337329456        8.8185986870
 Si         0.3876076063        9.9240864334       15.4206216151
 Si        15.9435397156       19.8158659292       12.7433631186
 Si        15.1949268366        5.1315851330        7.4838915596
 Si         3.4668727287        4.0768176718       14.3635140007
 Si        15.5492408376        2.5678539734       14.8305680540
 Si         0.0231247526       19.2501444209       20.1800018528
 Si         1.3510114327       14.6234437214       17.0050981249
 Si         1.6516873718        6.6360208971       19.5054374694
 Si         7.3629629406        6.5654448484       18.5016355067
 Si         4.3366999810        0.8884017152        8.1975798266
 Si        16.2363800435        4.8295668878        1.7181444967
 Si        12.3528514924        3.1743456400        4.7828171560
 Si         2.6824647776       15.8138527661        3.8551673584
 Si         0.4061082990        2.9865496897       14.5088792455
 Si         4.5626870539        7.3632607953       18.7596371908
 Si        17.3214845278       17.1529038634       11.8769155119
 Si         5.6692151172       17.8883697483       15.1746112022
 Si         1.4426976225       11.0140936706        7.2487076176
 Si        14.7842945332       16.4207155207        3.2472937490
 Si         7.7125777513       19.7613945710       13.8130477757
 Si         1.8904466189        3.8317742396        0.9207084258
 Si         1.4511204814       17.3842811948       15.9584846192
 Si        16.6377385435        7.7942717649        1.3387091598
 Se         4.4965670752        8.5429560046       13.8194951839
 Se         6.4734442421        5.6588321938        6.7709367217
 Se         5.8586392375        5.7582136601       10.4119516435
 Se         8.1433019810        5.8289977613       13.3627427718
 Se         8.5661020229        2.9999861098        9.5922559339
 Se        11.4998037225        1.2420301074       12.3430004126
 Se         3.0018125286       12.3600770230       12.2265998842
 Se         5.9381649667       12.6264800415        5.1425245125
 Se         7.0541357414        9.7970874092        8.5089678139
 Se         7.5850922729       10.8799748467       12.5871246600
 Se         9.4928596119        7.2441977042        4.4183534883
 Se        10.2105765325        7.3803963484        8.7015360875
 Se        10.8696092229        8.7556918531       13.2642808105
 Se         8.4493946155       11.1721668669       17.1941283830
 Se        12.4892158843        4.9983851661       11.0706635619
 Se        15.9297298611        7.4952114042       13.5831677600
 Se         6.8382804212       16.4625105868        5.9575616219
 Se         3.9334632497       15.0318778894        8.5759540620
 Se         6.8958298201       14.6881157161       10.8535182054
 Se         9.8157951255       13.3512084200        3.0048827348
 Se         9.4344903906       13.3604910190        8.1265678163
 Se        11.0613632363       12.1231163833       11.5403710879
 Se         8.7863802526       14.6699159072       14.7196001624
 Se        16.1318366486        9.1612034772        6.3832066286
 Se        12.7351579034       11.8015496096        5.7445767331
 Se        15.3430662007       11.9237959015       12.8496012913
 Se        12.4039697309       11.8594770588       15.6964874897
 Se        13.4703795050        9.3967377416        9.6232879093
 Se         8.5761306576       17.9162270664        9.8455409106
 Se        12.0899729581       16.4826565040       12.9171234229
 Se        11.2546772706       17.6769828128        6.4194598049
 Se        12.8875055904       15.5093780729        9.2589600154
 Se        15.8990408879       12.9352554371        8.4923451247
 Cd         5.4332439243        7.5796246017        8.4833907080
 Cd         8.4661293731        5.3785509257        8.4263317863
 Cd         3.7185160346        6.5064377987       11.6886845854
 Cd         3.3967537166        7.0373822094       15.7963382180
 Cd        11.1667610649        2.6882514915       10.1947215369
 Cd         8.1493780958        0.5739657883        8.3147406513
 Cd         3.6303636923       13.4008582145        6.3617789390
 Cd         7.1134437944       10.3712056033        5.8242745858
 Cd         5.1377798883       11.2513184954       13.2906362882
 Cd         7.1829422247       12.7891804753       15.6330276173
 Cd         6.6830833573        7.0879180174        4.7102567753
 Cd         9.8553182681        8.8830474432        6.5355573611
 Cd        10.5279720573        6.1696565036       12.4117126047
 Cd         9.2800208583        5.3466430765       15.5609434206
 Cd        12.7784592924        6.8705519726        9.3005019582
 Cd        13.0468030423        7.7210871907       14.1562251192
 Cd         7.8919098467       14.7995593468        4.2441646298
 Cd         4.3751217495       14.3329921365       11.3671075655
 Cd         8.8288774352       13.3713370723       12.4125263190
 Cd         6.6536534485       21.6556472456        6.0004093070
 Cd        10.0049777359       12.5514484288        5.6823096066
 Cd         7.8756605088       11.9728929368        9.6910612933
 Cd        11.2792892428       14.8229653435       14.8541835357
 Cd        14.3906104669        9.6297330154        1.1317191165
 Cd        14.6543748053       10.8180299024        7.5543202063
 Cd        12.7134331777       10.9597139273       13.0168651448
 Cd        13.2715846942        9.6062984241       17.0534237906
 Cd        15.3124101744        9.3866564305       11.7794393153
 Cd         8.7627595792       18.1400327283        5.7843707304
 Cd        10.2810906828       18.3699585682       12.0760343360
 Cd        14.0264492520       17.4941799420       11.1232314721
 Cd        10.4128001795       16.1627956470        8.9264378115
 Cd        17.4498261223       11.7540280010       10.2372183107
