438
 i =     9600, time =    19200.000, E =    -10932.3781646125
  O         3.8948846065       16.3732406982        3.2916154880
  O         3.5118758431        8.8978410185       10.2748179231
  O        14.0781649534        1.1595434097        1.8834875696
  O        11.9288998696       15.9566428014       17.1610697788
  O         1.6070101565        7.5276449028        1.4865126953
  O        15.8054380052       16.2960668184       12.1491838268
  O         3.7058123582       11.4107063763       19.0168955076
  O        17.2924234430       15.5644845026       20.0150452501
  O        15.3495861413       13.9099569369       20.4544224737
  O         1.3152109151       15.5700381391        2.7097346557
  O        11.0983364123        7.3737110846        0.5703141977
  O        17.8699308403       13.6880735338        2.3647516879
  O        10.5374958875        6.5648085015       16.6780153545
  O         1.0799226975       14.5885280879       18.6916442730
  O        17.9071034200        3.1943433582       18.3592390121
  O        12.0048181584        2.1002271923        8.6392032452
  O        13.5350307140        1.3127961943       18.5490848436
  O        16.9332327488        6.2736972952        1.3419311494
  O        10.7456491590        0.8022698141       15.9409976047
  O        15.5547930180       19.7275599212        5.9202707567
  O         4.7972867416        8.3980905771       20.0908016135
  O         3.1884002572       18.5026888889       12.5386201755
  O         1.3272742857        8.0216217031        8.8112174484
  O        15.8822755937       16.5106162099        7.0169989060
  O        17.0117463962        3.5805132808        1.4430570812
  O         7.3717336073        5.8941547551       16.6665401456
  O        15.9600409583        1.6003088811       19.2549762244
  O        -0.5007876975       18.2525302588        1.8064077929
  O        -0.0629467695        4.3583442086       13.5909676333
  O         2.0709932556       17.7970603961       17.3022543185
  O        11.6952535895        3.9216284382        3.1718284027
  O         0.6141362373        2.4986111278        7.5724290216
  O         4.6482454870        3.0037787224       14.5423607192
  O        16.9142123756        4.8995397021       10.7479611510
  O         5.4159950850        5.1697036294        3.8946912397
  O        11.4126485674        4.1179882774        5.8059388109
  O         4.1586222311       18.4796992936        8.9509350209
  O        14.3796826422       15.5427268674       16.0153360954
  O        17.0689873331       11.0710311498       19.1324237128
  O        14.6821645879        4.7734529179       20.1375961927
  O        18.5952687234        3.0939011904        5.2123919579
  O         3.5196333607        8.4711587594        7.5170627148
  O         3.9306659823       17.4539531036       19.1719797406
  O        12.9807556915        7.6147374887       16.6770695451
  O         2.0362400390        2.8738043898       14.8433226427
  O        15.7591906073        4.8346805257        3.2302877311
  O        14.3875009579       11.7082908653        2.0379845721
  O         9.3755678323       18.8373472769       20.2803713766
  O         5.6853211505       19.5697258124        2.5659069599
  O        17.0018445571       18.8777196014       12.4578789256
  O         4.6229005227       12.1992500749       15.6251701550
  O         0.5486706688       15.9238640016       16.4045438256
  O        11.1462318136       18.2533102027        2.8574841514
  O        17.7368394785       10.9563467347        2.4554380137
  O         9.5122125735       16.4585885998        1.7845226499
  O         0.1136633149        1.7149479721       13.4686547956
  O         7.4970441911        3.3445636736        3.9760596561
  O         0.4967445656       18.6962939818        9.5816828272
  O        18.3475009502       20.7019853527        0.8721371373
  O         3.2180653223        4.7732263347        1.3129073614
  O        17.5566272299       14.0522156086       15.0038671816
  O        -0.2052559731       13.4450753936       17.0222422996
  O        14.6626315323       12.2173508005       18.7277931797
  O         0.8110134332        7.4963256032       11.5556328973
  O         7.9089860553        2.6946665593       19.7655616771
  O         0.1450795759       10.9047294264       19.9043979930
  O         3.7425941301        1.7577532975        9.3613585037
  O         9.7004681057        3.1897890304       15.0871210002
  O         0.6491327554        7.7123027098       18.4831407691
  O        12.7100638770       13.2356377584       20.1049429382
  O         6.2006025061       18.5775902163       14.7642021812
  O         3.5264220525       12.4399893037        2.0874004099
  O        14.1176390964       16.3383769441       18.5045734486
  O         2.1852071829        2.8210013580       19.2192583213
  O        19.4271432391        9.3972128261       13.9005943014
  O         6.9959086032       15.4715640646        2.1950036718
  O         0.3948858115        7.7378558084        3.9190231473
  O        17.5206328920       17.4691801123       10.3608738229
  O         8.9623431337        2.1064482581       17.3410563035
  O        13.7986761840        6.1570884018        7.6920633744
  O         2.1211771318       10.6222021696        8.7032490581
  O         2.6043369931        9.2334743910        3.4381474066
  O         8.4353931515       18.3068136442       13.3458905781
  O         3.1543687439        0.4298959697        6.8693931894
  O        12.4803547097        5.6373419737       14.8515899135
  O        12.3120767564        9.6154710413       19.3399611226
  O        15.4645389531        8.0202132659       19.2581681052
  O        10.0698688689        9.7320703708        1.5388341544
  O         6.6049462306        0.8993240526       12.8488581067
  O         8.3633749022       20.4626047343        6.2799208452
  O         2.6056145137       11.4397979756        6.0802639874
  O         2.9575260821        4.5917851646       12.9005824313
  O         5.7223429843        6.2642601175       18.6321171538
  O         1.8115806647       17.1535077493        4.9055441525
  O        17.8746986753       20.3748059315       16.9925140327
  O         2.3592400606       14.0247563035       16.2150333060
  O        -0.9055461269       18.5581478570       18.7171772902
  O         1.2025611719        4.6935922885        5.9833155429
  O         3.5974898619       20.2212474535        4.1272345727
  O        15.1356011160       17.7426850862        4.0220365082
  O         9.3922766612        4.4594310052        1.8850034443
  O        12.3387721040       18.1111149513       19.5241809068
  O        14.1096578504       16.6285222050        1.7986591592
  O        16.7017110199       12.7545935783       17.1336382539
  O        13.5591876678        6.3355432047        4.1859315780
  O        17.0897812981        9.5957041095       10.2451513999
  O         4.6778156186        8.2835446217       17.2950153761
  O         1.0926885433        5.2500405517       19.2170934402
  O         0.4067985354       12.2592266440        3.5775417870
  O        18.5969012890        6.7845799921        9.4764962912
  O        14.9845726406       18.5989487119       19.7207145630
  O         1.6623039316       10.5221582219       15.9150486793
  O        -0.3491070159        3.1472089806       15.9110630529
  O        14.2440574889       18.7728666870        9.2255164844
  O         5.9352437174       11.6352935987        1.3132370818
  O         8.5107273120       18.3709686061        3.4247148964
  O        15.0375266196        3.6849475442        7.6310434671
  O         3.0815465277        6.7866752898       18.6495707045
  O         0.4882800965        9.8856545377        6.6000338182
  O        12.3822667882        1.8112435205        4.7792660286
  O        18.1067256177       17.6392427372        7.8774992919
  O         9.3151012448       17.8525601484       17.8604261908
  O        16.9089246126       19.8162728527        3.6874818131
  O        18.4520133568        4.3379767601        8.5835221185
  O        18.5682409181       13.1914277786       11.3759948739
  O         3.4645391719        5.0110621115       15.7301564477
  O         4.3516394274       16.7453497806       14.4424195626
  O        15.4315921476       10.3172866480       17.0929664384
  O        16.1358712605       15.4564409702        3.2019848372
  O        16.2565353757        1.4347529013       14.1372430208
  O        15.7246344714        4.0745259264       14.1594026081
  O         5.8057727221        0.9513720492        7.7098213005
  O         1.8577207761       17.5209939235       14.5677723360
  O         7.3373604620       17.4937782973       19.7158482894
  O         7.7907522736        7.8910727034       18.6706336324
  O        13.4284066768       18.0474380885       16.3032757083
  O         1.7020366097        2.1086818300        5.2232155280
  O        16.4299842027        2.9263755395       16.2738645950
  O        13.9483300920        3.7127296932        4.6946066362
  O        -0.9608700945       16.7733892114       12.8584403789
  O        17.7312170322        8.8185062804       20.4310870111
  O         0.2024229913       15.9668951040        9.4423299999
  O         6.2700913093        2.6649776147       17.5904867771
  O         6.0340582977       16.1581203985       16.2326656321
  O        16.9070622163       17.8292884860       16.7805082231
  O         4.3255816120        2.7451322836        5.9058560065
  O        15.8305704347        1.7051596663       11.5093700851
  O         2.6805968405        6.4635198338        3.8902011717
  O        17.5211207446       21.2368633966        8.7326903905
  O        -0.0825379917       18.4137199358       16.0195610250
  O        15.6652212531        8.4114367160        2.5032228667
  O         1.8024179538        5.6437196184        9.9383281325
  O         1.3475851944       19.6020632442       19.7014093152
  O         0.4884811797       12.4134806322        7.5759742589
  O         6.6090355504        4.6098547510        1.7445547670
  O         2.6477844683       15.8752925156       12.5307293059
  O         3.4432822323       20.6170850976        1.5482816280
  O        11.2867218319        3.2057878476        0.6853793158
  O         3.4545327170       19.9926911757       18.3050996992
  O        16.5030268455        6.0030539947        8.2254641588
  O         2.6161868019       14.4730439733        4.8144844307
  O        12.3929631449        8.9322345950        2.4393961885
  O        12.7115391110        5.0512369794       17.4104180586
  O         8.1579880158       15.1796109251       19.1202296666
  O         6.0931213009        9.0506514963        4.2322639430
  O         7.4151390280       19.7809583508       18.4789835293
  O         8.0757819960        5.3809400790       -0.1995405203
  O        14.4712308036       19.1308743719       12.9885668177
  O         0.8106148254        3.6944678210        2.0768273356
  O        18.2912675638       15.3293013720        6.3935918374
  O         8.1925993674        0.9166557499       15.0380774327
  O         9.2722852843       10.2322431901        5.5471086226
  O        17.3470448552       12.4214994645        4.6459874606
  O        18.0210284554        6.4747223439       17.0119443160
  O        18.9014993929        9.0218002273       16.5497733991
  O        13.9029572601        2.3404594024       15.3132470593
  O         4.5367225407       18.5040085318       16.6048372615
  O         0.2300237810        2.6360056886       10.2772582461
  O        13.6540519961       15.3887540781        4.1980084504
  O        17.5417444740       17.7355295868        5.3148388207
  O        15.6608678211        5.5031258401        5.8473173781
  O         9.9690727752        1.8435348896       22.0645046646
  O         5.1511299642        2.6932317836        2.9080078699
  O         1.1264738224        6.8075973305       15.9486665117
  O        18.4286053378       11.4184759173       15.3970202169
  O         4.9052077368       13.8784718540        0.2206966169
 Na        13.3519537940       14.8792149073        6.3244597391
 Na        -0.7732252817       19.0331444879       13.9608813142
 Na        14.3889046048        3.5183122919       17.9675300572
 Na        14.2776222646       17.9063513781        7.1998199866
 Na         3.9084437679       13.1983251257       17.5817497150
 Na        13.3373256750       19.3343613913        3.5431519283
 Na         5.0553469743        4.1074194778       19.5138020476
 Na         2.0165074235       18.4436633476        2.5978505927
 Na         5.6789493891       15.7127588673       18.5211123258
 Na        18.8188623281       21.3805727048        3.2987350109
 Na        18.8220322015       16.7890950295        3.8189176190
 Na         3.2576016415       15.6133201309       20.2702917182
 Na        14.6881092736        5.4350337314       15.5898682957
 Na         1.8794512679       20.5151100029       10.0868131645
 Na        11.6454725525       19.0046552246       17.5887302011
 Na         7.2035661209       16.5565536489       13.1391967886
 Na        13.2774629961        3.3610361494       20.8069839186
 Na         5.1454115442        0.0254765684       11.3639722505
 Na        19.8406600963       13.6085725201        5.3996257384
 Na        11.4708048915       20.0602601778        1.1057801461
 Na        17.2312854939       14.3245122340       12.7273839541
 Na         2.2910826535       10.0456091076        1.2077235966
 Na         4.7895193107       10.9851925891       10.3022557768
 Na        12.0071970017        3.2900795929       14.2787281287
 Na        12.0521745186        4.2239366806        7.9486072434
 Na        14.2037491731        8.4147181591        4.1663936825
 Na         0.8045670945        6.6627900409       13.6816773061
 Na         2.3358805908       12.4364729233       14.9297075204
 Na         4.0321717409       17.8777077541        5.3386371877
 Na        18.2537367095        5.3183625273       19.1737988599
 Na        10.7606995548       16.3502471529       -0.1376838895
 Na         1.3922360447       16.0401044133        7.0246146788
 Na         7.8375933010       20.4690155893        2.7077271755
 Na        15.2717705411        1.9952970705        3.7506758058
 Na        19.0106029692       11.5555926424       12.9939025010
 Na         8.2839138984       15.8520636524       16.9440142777
 Na        16.6144190562       18.2832824924       21.2310707857
 Na        12.8701622368       19.4993622432       14.5833701841
 Na         2.3617550228       17.2415662171       10.3395941807
 Na        14.6387486443       16.9877687462       14.2829037156
 Na        14.5052627797       14.2505165178       11.1842466830
 Na        18.1741883727        8.4829813983       11.9618637620
 Na         4.6835549770        9.8343662148        2.5524561010
 Na        15.0735625886        5.1011407049       12.2786507286
 Na        10.5853487729        9.7710847699        3.7161011992
 Na         6.8419036952        8.1333515479       15.7398827046
 Na         5.5389330907       19.0661166477        0.4008869595
 Na         7.2296910490       13.2790684495        0.5930157047
 Na        15.8213157566        8.0764836631        8.8840355745
 Na        11.3709954795       16.1617952372        3.6466493016
 Na        16.3741755292       19.1387446894        8.3584582615
 Na         4.9723574406       14.1184956001        2.7614281125
 Na        16.8424153851        2.4638359733        6.5417923905
 Na         9.8717322352       17.8480129554       15.3512536904
 Na         5.9427247012       17.4096965740        3.1833994972
 Na         4.4069182150        6.4845670722        2.2729450000
 Na        18.1799125456        5.3763438784        6.2418158381
 Na        17.6854243292       11.5644907420        6.7961085413
 Na        17.5844641434        8.6624327931        3.6961773745
 Na         2.2955234973        3.9652033616        8.4354910732
 Na        13.2101114552       14.0745158221       17.8583747562
 Na        10.1083300631        8.4897903859       17.9187141750
 Na         2.9779035381        4.0944445419        3.5329700258
 Na         1.4022232620        7.7370040175        6.1367414383
 Na        18.7509335543       14.2610450001        8.3954546234
 Na         1.3894563741       13.3938839766        1.9491574297
 Na         7.5651317077       10.9927924413        3.1665829349
 Na        20.0130420656       10.1604046704        4.3166585089
 Na         0.6642665219       15.3248451348       11.9194671657
 Na        11.5790761660       19.2638511238        9.0325779176
 Na        16.8196969045        8.5965276038       17.6629107814
 Na         1.0064071682        4.2316325907       11.5734649702
 Na        16.4031259801       14.2328984986        5.5386685261
 Na         9.2884079741        4.4495939002        4.8452802517
 Na        -1.0641248397       13.3354982623       19.2978022605
 Na         5.3983401693        2.9543692446       12.4326590809
 Na         9.8611190195        9.7354021169       10.3868034057
 Na        10.5500470638       19.8413729559        4.4361075534
 Na        20.0125613316       19.3635438651        7.1326865598
 Na        15.8072936906       15.7105379706        9.2169481863
 Na        16.0184085294        3.1206048813        9.6841001576
 Na         4.0019508543        5.6598488648        5.6167591244
 Na        16.1661416735       16.2821640270       18.1583946046
 Na        10.9688158656       11.7809496468       19.6803212424
 Na         5.5135653483        1.3807185258       15.8625367612
 Na        12.1350667696        6.5166504781        5.8445750579
 Na         8.8668829200        2.9624184120       13.1257557252
 Na        11.7280366862       22.1229406675       17.5035591715
 Na         7.0637688827       13.4744153364        8.1473654939
 Na        10.7561773293        5.4154512934       19.0334770839
 Na        12.0541223009        6.4799229779        2.5278617724
 Na         5.7261448887       17.0157182196        8.5516132979
 Na         4.3673359177       14.5412865068       15.1371355258
 Na         1.3683720645       10.8721743750       18.0282194919
 Na        12.6558138285       13.2493199655        3.1409168169
 Na        13.5613009396        1.8341129525        6.8265257696
 Na        10.5037612221        1.8612251306        6.8197043998
 Na        -1.0396255144       20.2594675334       10.9244840042
 Na        17.3169743802        3.3529272357       12.5939931353
 Na        17.8821728286        5.1768962859       15.2090312280
 Na         9.5370128923       11.4240848799       15.0069645678
 Na        -1.5301909518       16.2535886689       15.2331022029
 Na         2.6206608698        0.6651860702       14.1983335422
 Na        12.0411284678       12.5697220652        9.0267484935
 Na        19.6183159606        5.2766659876        3.5064906278
 Na        15.1334487222       13.5266080093       15.4270645906
 Na         0.1969928678       16.2566929320       19.9338336229
 Na        15.4601825333       11.3221790680        4.0729592145
 Na         4.1581254636        9.7608607905        5.5701271109
 Na         2.6329827165       12.1022645979        3.9622968617
 Na         1.7506253133        4.4586297646       17.0839101063
 Na        18.6948442981        9.4335136302        8.5144982458
 Na        16.1631603899       10.2125474585       14.8543565137
 Na         5.5846971245        4.4272284455       16.4284078050
 Na        13.4989278986        6.9207763298       18.9154300551
 Na         6.6710492862        9.8284700196       -0.0357800698
 Na         1.5385447660       12.6070441164        9.7309263538
 Na         8.7573245387        7.5405143461        1.3422197256
 Na         1.8330439860        9.5363105173       12.2542642874
 Na         5.4518637806        3.4801357154        8.4820625996
 Na        15.1388864267       19.5269397697       16.6107128777
 Na        13.8688974550       20.7755021254       10.1350364037
 Na         6.8463804514        8.1611959711       11.9155542479
 Na         3.8001746590       10.2448555945       17.0225151670
 Si         0.6601173281        3.1903637215        6.0187386140
 Si         8.1040930489        4.2099270297        0.9483481777
 Si         4.5072483776       12.2607000470        0.7359392043
 Si        17.4276326369       16.6358456977        6.7193066476
 Si        17.2844222282        2.3731755043       19.6801849352
 Si         1.8808245133        7.7817603215        3.2512863864
 Si        18.2081456671       12.2741314606        3.3307364852
 Si         3.2226872542        1.5742845750        5.5918282680
 Si         6.2193167743        3.9363632134        3.2365016012
 Si         9.4669639901        1.7352445445       15.8196835125
 Si        17.8866084888        2.5670032799       16.8805391611
 Si         9.6644349898       18.0399026029        2.3269979592
 Si        16.3011835090       18.7727817465        4.8047554871
 Si        14.2188719129       12.7730841766       20.2221844405
 Si        18.9208154833       17.3834085397        9.4590983446
 Si        10.5614468457        3.1508938933        2.1119847870
 Si         8.4207782129       18.5028699161       18.9523760881
 Si        12.1395934036        6.1866504939       16.3998518921
 Si        17.5775369845        5.4600638702        9.4113664919
 Si        11.3471609820        8.9008275946        1.1593416674
 Si        14.7062594818        5.1812243331        4.5073793262
 Si         3.0905672372       17.1836749041       13.4199280207
 Si        17.9924852488       12.9459917782       16.0447594567
 Si         2.6010662153       20.6580697523       19.5477333002
 Si        13.7615765464       17.4426670005       19.7379787163
 Si        14.4687205590       20.2405692827       19.7581100505
 Si        13.4343074137       16.5480482844       16.9141963854
 Si        18.1064058393       18.7664034599       17.1030117891
 Si         4.5737443454       20.5936883550        2.8442276770
 Si         0.8534484669        6.9345100183        9.9725026282
 Si         8.0006949672       16.0731034539        1.0761377236
 Si         3.4848445043       18.3621242866       17.9230012015
 Si        18.0588158350       10.4427173585       20.3127600015
 Si         7.5736968977        1.9636745533       18.2083187413
 Si        19.4047103181        7.4498764395       16.9040078671
 Si        16.6726126802       14.6380700017        1.8127219515
 Si         2.7055827550        8.9802896903        8.8092239822
 Si        15.9355317395       11.4929525150       18.0362381958
 Si        18.8713215412        2.7619066149        8.8806257915
 Si         0.1847710115       10.0406662093       15.4008824909
 Si        15.7662697714       20.0126424066       12.7032530163
 Si        15.1320500539        5.2483376222        7.4369230651
 Si         3.3160325164        3.9733946414       14.4621215007
 Si        15.4298994914        2.6933737807       14.9093021314
 Si        -0.2449153836       19.2556244606       20.0410920118
 Si         1.0966985774       14.5036820026       17.1183423001
 Si         1.6376908227        6.8504425444       19.4041816499
 Si         7.2948649417        6.4246946396       18.2048775511
 Si         4.2883051669        0.6023682746        8.3345395952
 Si        16.0158966723        4.9239807705        1.6222585672
 Si        12.2214762800        3.3540980257        4.6582949049
 Si         2.4055272384       15.9125632881        3.9526836668
 Si         0.4332712322        3.0145185633       14.2956601654
 Si         4.5741899467        7.5173055473       18.7198234262
 Si        17.2102669321       17.2424222590       11.9828158508
 Si         5.3666065627       17.4761475086       15.5990610665
 Si         1.4160557084       11.1145125329        7.1617226032
 Si        14.6718217971       16.3109902248        3.3256186913
 Si         7.4198904053       19.3968562287       13.9164123071
 Si         1.7951075498        4.1796203607        0.9192473938
 Si         1.1785553459       17.3857172817       16.0233192828
 Si        16.4302275620        7.8398566888        1.1439461712
 Se         4.0267102876        8.3925520281       13.6105473436
 Se         6.6155570726        5.3401953376        6.6387785403
 Se         5.5879337674        5.7627780674       10.4941722129
 Se         8.4878197046        5.9664220489       12.9826352935
 Se         8.0459809248        2.9835060495        9.9873666643
 Se        11.4993092921        1.2313600193       12.1712552082
 Se         2.8731524645       12.2267183826       12.2391961925
 Se         5.9465550448       12.5273283446        5.1421884763
 Se         7.1182673892        9.8785975130        8.6204357459
 Se         7.1898939655       10.6791454788       13.3520554308
 Se         9.5668760955        7.1216360443        4.0624989270
 Se         9.9215342469        7.3046781435        8.7386190140
 Se        11.0932919531        8.9089942400       13.4172731527
 Se         8.5861985980       11.2739296486       17.6070336560
 Se        12.5529037525        4.9444604312       10.9875788388
 Se        15.8976807363        7.8744164491       13.4988669608
 Se         6.5013899969       16.4147966396        5.8793530817
 Se         3.3640640993       14.8351177226        8.5133240502
 Se         6.5331734169       14.6534563693       10.8917416575
 Se         9.6512774603       13.3351587520        3.2826146296
 Se         9.7619360345       13.5578989526        7.9354896939
 Se        10.6861651821       12.5079454666       11.6657105854
 Se         8.9386717593       14.6299828186       14.6172970170
 Se        16.4526728301        9.0778675796        6.2960249711
 Se        12.8985147306       11.5783654973        5.7651369857
 Se        15.0616522416       11.9526495642       12.9353656051
 Se        12.2384467515       11.9881846580       15.9935672798
 Se        13.1850802568        9.7846644625        9.6136496462
 Se         8.7149708283       17.9173566553        9.6485262066
 Se        11.9523645095       16.7975441257       13.3642619728
 Se        11.2817270643       17.6775664462        6.3894813485
 Se        12.6760764014       15.7643331290        9.6743185553
 Se        15.6381293768       13.0433110805        8.5884059512
 Cd         5.4188757761        7.6798226580        8.8159673410
 Cd         8.0467388271        5.4816348925        8.8690513305
 Cd         3.3266628663        6.6365923165       11.6011573848
 Cd         3.3341762661        7.2421582156       15.7845042129
 Cd        10.6110374716        2.7410864120       10.1226376500
 Cd         8.0166149040        0.7468442011        8.3751165496
 Cd         3.9513087189       13.3686504562        6.4713655808
 Cd         7.1166143762       10.2567968682        5.9387696359
 Cd         4.7570278952       10.9849343655       13.7565228619
 Cd         6.6383729170       11.7831969885       16.2184469119
 Cd         6.7960432415        7.0830120492        4.5047000440
 Cd         9.3411242521        8.2345062483        6.4264766678
 Cd        11.1243609388        6.1816940595       12.6422644889
 Cd         9.1223186087        5.3838895780       15.4584031730
 Cd        12.5274302511        7.0922426909        9.4357994132
 Cd        13.3174903073        7.8873700244       14.3557925734
 Cd         7.6247307512       14.6802142211        4.2853932378
 Cd         3.9594255016       14.3735993684       11.2723898973
 Cd        11.2870609143       14.9430682642       11.6244008230
 Cd         6.5548208401       21.6345068105        5.8228072800
 Cd        10.3116605718       12.3522756919        5.6452463846
 Cd         8.0190359831       13.0848448659       12.4555841226
 Cd        11.4886863077       14.7009157296       15.3555553874
 Cd        14.1332094658        9.6547605938        1.3125978951
 Cd        14.4618019500       10.6150053273        7.5702477038
 Cd        12.4150224429       11.3065706970       13.2833757643
 Cd        13.1142417846        9.8209216191       17.1494904812
 Cd        15.2141051688        9.7287440873       11.3479336655
 Cd         8.5508635732       18.2080304825        5.6935714048
 Cd        10.0217561279       18.6113684853       11.9912919821
 Cd        13.9998653997       17.9515359259       11.0865650394
 Cd        10.3538212337       16.0445326149        8.1203827146
 Cd        17.3264201409       11.8123016008       10.4389767213
