438
 i =     9200, time =    18400.000, E =    -10932.3806258449
  O         4.0075987788       16.2659099837        3.2970703173
  O         3.4560656497        8.5593341699       10.1871085024
  O        13.7089244649        1.3247099384        1.7759596690
  O        12.0082517713       15.6495729388       17.1301666631
  O         1.7953104051        7.3996150644        1.5108467147
  O        15.9193325997       16.2010709682       11.9671295867
  O         3.9930572403       11.0970268782       18.9129812576
  O        17.3263572669       15.6332255329       20.0382326328
  O        15.2974560308       14.0110140086       20.6266498739
  O         1.4968599423       15.5951645899        2.6227952633
  O        10.9753133083        7.1374407031        0.6213894750
  O        17.8291969578       13.5810369513        2.1136884850
  O        10.4997026840        6.4080098016       16.7707743698
  O         1.0328583402       14.5073720836       18.8380701134
  O        17.8629588138        3.0625898689       18.3770728370
  O        11.9601281923        1.8536046154        8.6121823989
  O        13.3922505733        1.3271048548       18.4213710894
  O        16.8928177848        6.3614996205        1.5344348136
  O        10.8911508209        0.7130352476       15.9442747902
  O        15.5535433042       19.6254497161        6.1177086937
  O         4.8634239241        8.2702460813       20.0420020862
  O         3.1247764462       18.5393993911       12.7363425054
  O         1.1486895470        8.0150099211        9.0748119103
  O        16.3218758058       16.5269396742        7.3064818972
  O        16.9926945131        3.8088586350        1.2216048957
  O         7.4106695304        5.9196616152       16.6379654194
  O        15.7715127837        1.7194502017       19.6199999347
  O        -0.0285084352       18.5151465320        1.8834945085
  O        -0.3439587113        4.2741085457       13.5943361063
  O         2.0368103909       17.5059939836       17.5217442454
  O        11.6124257724        3.8897172259        3.2177048335
  O         0.6363764112        2.3918231315        7.5621058581
  O         4.3257062314        2.6807879427       14.2758391105
  O        16.9646636653        4.6328407350       10.7043585125
  O         5.3447451876        5.1068397675        3.8513748772
  O        11.3562896570        3.9570509585        5.8985530587
  O         4.0344003239       18.6557685813        9.0934380423
  O        14.4514077684       15.3112780495       16.2334739246
  O        17.0383696418       11.1348166118       19.3119057947
  O        14.5989598968        5.0849022321       20.2752797646
  O        18.8218779355        3.6152482763        5.3835440627
  O         3.3440064688        7.8928007598        7.6034357437
  O         4.1635234082       17.1302529062       19.0390963400
  O        12.9718075443        7.6534577914       16.3256562754
  O         1.7760158321        3.1763942326       14.9295707848
  O        15.7462452674        4.7801480142        3.3964882232
  O        14.2169590418       11.7422955119        2.0700808230
  O         9.4771767143       18.6545641458       20.3997854546
  O         5.5401095834       19.2347098883        2.5841682156
  O        17.0734762617       18.5488119929       12.7103971377
  O         4.9938086502       12.1055343642       15.4833854212
  O         0.2402385714       15.7540143868       16.4049763222
  O        11.1088740732       18.1783399223        3.2470160816
  O        17.7664046137       10.9520418311        2.4869106462
  O         9.5152516257       16.2842322557        2.1213700135
  O         0.1194284531        1.4793279784       13.7263795888
  O         7.3280371470        3.0710967790        3.9568072182
  O         0.6286592791       18.6036233865       10.2204921558
  O        18.2254995907       20.7330715206        0.9917633543
  O         3.2773507297        4.6548307567        1.6027492304
  O        17.4644866167       13.6628187398       14.9308981597
  O        -0.1124524261       13.2899156268       16.8776245437
  O        14.6738369927       12.0999594486       18.8035707184
  O         0.6980130852        7.4491424834       11.6697789813
  O         7.9643999432        2.5053802839       19.9480917363
  O         0.2082868759       10.9316460300       19.9699118048
  O         3.6995481277        1.8972257468        9.1211327272
  O         9.7812515074        3.1166052885       15.3057066713
  O         0.8024389395        7.3834851100       18.4953478881
  O        12.6759647307       13.3965121934       19.8506990439
  O         6.3712961810       18.4573976279       14.9998922612
  O         3.5799913279       12.4631886481        1.8451152376
  O        13.9725860602       16.4570508635       18.5680538760
  O         2.5226488576        2.7180814388       19.3235699279
  O        19.6056023552        9.5386006918       13.9706908017
  O         7.1895551178       15.0724714358        2.2512650412
  O         0.2472332689        7.4930689463        3.7154072715
  O        17.5867221614       17.4205811855       10.4045825938
  O         9.0131675936        1.7822780177       17.5570716688
  O        13.5790347308        6.0945886674        7.7717832059
  O         2.3326901004       10.2603142220        8.4559956686
  O         2.3249084354        9.2588238092        3.2435371278
  O         8.6072270092       18.1364627826       13.7112468317
  O         3.2656293296        0.4949052494        6.8436246909
  O        12.3011410831        5.5709366444       14.8619298909
  O        12.3383071440        9.3076251728       19.2856558288
  O        15.2899703073        8.0063182733       19.4177829534
  O         9.9073751712        9.5147974981        1.3182911568
  O         6.7373369156        0.7218957633       12.8692327242
  O         8.4859084160       20.2774388204        6.5513517893
  O         2.7601240193       11.1895032308        5.9736321407
  O         2.9231201571        4.7344850388       13.0744569681
  O         5.7185967081        6.1091166497       18.6363799841
  O         2.0105166086       16.9190461041        4.8721607582
  O        17.5848684954       20.1745276584       17.0341994761
  O         2.4446872700       14.0537510307       16.5538566803
  O        -1.1054772517       18.3968767853       18.8484697897
  O         1.7270739898        4.6222625353        6.4544115679
  O         3.7146036452       20.0139319875        4.2393514316
  O        15.0783211012       17.6964423250        4.4197717451
  O         9.2061649796        4.3381337403        1.9338541581
  O        12.2145460129       17.6758446450       19.9178219529
  O        14.5448542000       16.7680406359        1.8967084352
  O        16.7198158918       12.6870162182       17.2068745633
  O        13.5639353294        6.1149031037        4.3349398624
  O        17.2210535051        9.5991671721       10.2642390875
  O         4.8020242544        8.1571036903       17.1740016814
  O         1.3309426114        5.0205344064       19.4172836633
  O         0.3227978929       12.2547205345        3.5584927339
  O        18.5445383859        6.4762325990        9.5799459114
  O        14.6850392735       18.7346716744       19.6320320537
  O         1.5532783985       10.6390739539       16.2279431392
  O        -0.4432440357        3.0573936852       15.9587569552
  O        14.1132565638       19.0372086975        9.2519809089
  O         5.9917124688       11.1946998006        1.3468074310
  O         8.4441775237       18.4751541191        3.4455637769
  O        14.7529033202        3.5690088610        7.9003176022
  O         3.2528461748        6.6209174697       18.6750633172
  O         0.5495864332        9.5766324999        6.5320376521
  O        12.1758907517        1.6389672308        4.8403411415
  O        18.5702696871       17.7734284133        7.9674625752
  O         9.2212357126       17.6418898680       17.8216184530
  O        16.6975309872       19.6010394827        3.6455363002
  O        18.3963845396        4.1553027373        8.4974259443
  O        18.9132970761       12.6687140184       11.0448085923
  O         3.7802551136        4.6909677593       15.7813073911
  O         4.3578725884       16.8110073460       14.3614554483
  O        15.4506996276       10.3114630617       17.1089433227
  O        16.3652265239       15.5582767204        3.2805378027
  O        16.3230326070        1.2962440014       14.3433636129
  O        15.7901615125        3.9381459402       14.0608668298
  O         5.7285273953        0.7577184901        7.6531063185
  O         1.7543040624       17.3588217776       14.7015846708
  O         7.4798077166       16.9109016636       19.7324129545
  O         7.8604942366        7.7626477369       18.6452560557
  O        13.5109568763       17.8261878312       16.2616264904
  O         1.8305795098        2.2709808396        5.2772123736
  O        16.2581064935        3.0612148750       16.4027960611
  O        13.8119852575        3.5785540223        4.6529020890
  O        -0.8546449292       16.3270244927       12.7878166588
  O        17.6656484203        8.8199038034       20.3759564252
  O         0.3099019703       15.9470643453        9.5813673750
  O         6.3397831451        2.2063910469       17.8042379194
  O         5.9595695199       16.1014346792       16.3315058205
  O        16.8030155589       17.6364591852       16.6877295555
  O         4.3479307408        2.7988873027        5.7060239525
  O        16.2680962892        1.3939196340       11.6106004466
  O         2.8782385589        6.8429809328        4.0103465985
  O        17.7526607805       20.9981558651        8.7323648885
  O        -0.0887051407       18.3048574727       16.1779946195
  O        15.7181966300        8.5487768702        2.6994777658
  O         1.7678401812        5.5439900531       10.1119626955
  O         1.0493096761       19.8389624065       19.1747017767
  O         0.5277585723       12.0445886687        7.4151318503
  O         6.4765174022        4.3445889870        1.7207653579
  O         2.6805368148       15.8901459362       12.4631940475
  O         3.0734346927       20.1491896940        1.7229174412
  O        11.2526033116        3.5219174309        0.5847771069
  O         3.4802101466       19.6831467497       18.5639109088
  O        16.3177200923        5.8405441257        8.4214997244
  O         2.7370420202       14.3036306551        4.5897695296
  O        12.1437451910        8.6495509164        2.5298315443
  O        12.9368961996        5.3251562422       17.3894725902
  O         8.8600176481       14.5399239140       19.4955827664
  O         6.2156195103        8.8611380456        4.3452767367
  O         7.5197593522       19.5032328920       18.8860624578
  O         8.1215199291        5.1468614258       -0.2654945750
  O        14.4907518590       18.9697875893       12.9831502349
  O         0.9416080212        3.5990827493        2.1309696200
  O        18.7255266324       15.6748688804        6.2264950626
  O         8.1374169436        1.0954670649       15.0338983826
  O         8.9701309108       10.1985714520        5.5249697143
  O        17.2121981207       12.6078696253        4.6642537337
  O        18.0804707804        6.3452903100       17.1408010323
  O        19.0810717636        8.7983204812       16.6041841440
  O        13.8694032727        2.4893074584       15.1612313469
  O         4.4826140552       18.3738297315       16.6218270551
  O         0.4999038992        2.4970104313       10.1647576450
  O        13.8375684230       15.3536228034        4.2367421541
  O        17.6529221569       18.0192546950        5.4776831427
  O        15.5472230154        5.1477246243        6.0046461008
  O        10.0239995041        1.9155157350       21.9857701099
  O         4.8848559401        2.5717306902        2.8132042001
  O         1.2332971100        6.5821688379       15.9394115902
  O        18.2184168600       11.1201651482       15.4925059608
  O         5.2583462735       13.5598763173        0.1515124908
 Na        13.4022889393       14.3309495979        6.3381999898
 Na        -0.4763848018       18.7135642692       14.0538573179
 Na        14.3530479795        3.4955917306       17.9624178256
 Na        14.2100693888       17.5411345729        7.3224861101
 Na         4.2500893524       13.0587147451       17.4331204210
 Na        13.0736746455       19.0134088837        3.9415962867
 Na         4.7255324797        3.8013455585       19.5296351274
 Na         2.1795400963       18.1078166282        2.6029496150
 Na         5.8475718436       15.5081546081       18.4563397008
 Na        19.1545743867       21.4657945927        3.2079254987
 Na        19.1148952189       16.8293036734        4.0906925512
 Na         3.2270702498       15.3205793111       20.1336880583
 Na        14.5645464938        5.3253010738       15.4377292144
 Na         2.1512011388       20.2281617008       10.5215707682
 Na        11.7515358647       18.9167193137       17.9804840671
 Na         7.3390783218       16.4062774037       13.1771427116
 Na        13.3009294696        3.5043256257       21.1943284226
 Na         5.0674123171       -0.1309809683       11.5839281098
 Na        19.9673691570       13.5611553685        5.4685316822
 Na        11.4206474936       19.8040317805        1.3820266509
 Na        17.6315973374       13.9675781705       12.4783892068
 Na         2.5472499432        9.6291953559        0.8047485469
 Na         4.7834733632       10.3349251396       10.2309236105
 Na        11.9955616223        3.3158862619       14.4034868314
 Na        12.5107978162        3.9523414252        7.9450612604
 Na        14.3240957321        8.1957983087        4.5729246178
 Na         0.8599196940        6.3909216886       13.6489568349
 Na         2.3866381584       12.3294811276       15.0562616525
 Na         4.2419743924       17.7277112044        5.3331498436
 Na        18.4124537721        5.5786224841       19.3247959175
 Na        11.1403942102       15.5335025847        0.1144952574
 Na         1.6303064303       16.2452359901        6.9416599215
 Na         7.9332031673       20.4696933265        2.5042460532
 Na        15.2898100276        2.0490672044        3.6834009479
 Na        18.8493857520       11.3380175549       12.8377202820
 Na         8.6399736057       15.3978622312       17.4500984831
 Na        16.7362740380       18.2815054831       21.1551363253
 Na        12.9219390418       19.7168146636       14.5430015465
 Na         2.8213683628       17.2265194938       10.3688063309
 Na        14.6092362984       17.0903039328       14.3188541535
 Na        14.1555318764       14.6191252376       11.8810816708
 Na        18.1355688423        8.3414761788       12.0988011720
 Na         4.8079002009        9.7569440983        2.6422924821
 Na        15.4201852032        5.1811469249       12.3286342674
 Na        10.5664366721        9.7631950794        3.6862873132
 Na         6.7269297370        7.9551990244       15.6074121699
 Na         5.6723577194       18.6867702884        0.5565893276
 Na         7.4639583326       12.8878540357        0.3383816725
 Na        15.8226616410        8.0726711930        8.8706391575
 Na        11.2690806930       15.9093548328        3.9026676865
 Na        16.5911832285       19.1007702108        8.7301073266
 Na         5.0688894043       14.1719754807        2.7225592795
 Na        16.6674285506        2.3113820532        6.6478432970
 Na         9.9058672443       17.7661502739       15.5117842224
 Na         6.1635129124       17.1473811388        3.1566567366
 Na         4.4501758227        6.3384243927        2.1404475183
 Na        17.7189751439        5.3758384435        6.3523231375
 Na        17.8118447249       11.4614635261        6.6331318083
 Na        17.8392464391        8.8057914223        3.9822475486
 Na         2.3901807481        4.1077896720        8.5989379113
 Na        13.3079062497       13.8726309975       17.7629063548
 Na         9.8633987064        8.3823589449       17.8110324173
 Na         2.8550079954        4.1511419440        3.7735656927
 Na         1.4103969533        7.0172842851        6.1373710754
 Na        19.2969494665       13.9381127968        8.5251793812
 Na         1.3130080526       13.2802620098        1.7531267621
 Na         7.6635821570       10.6394282507        2.8377311395
 Na        19.9956203089       10.1592299076        4.3008698451
 Na         0.6848468827       15.1940585392       11.6843608216
 Na        11.3515943599       19.0978359432        9.0322579529
 Na        16.7024488773        8.3264021030       17.5238930546
 Na         1.0385740718        4.1439587502       11.6410420370
 Na        16.8811870268       14.4848760014        5.7179842056
 Na         9.2919121451        4.1090234614        4.7879433795
 Na        -1.0110471013       13.2026761611       19.1122723441
 Na         6.0229294777        3.0170190965       12.6531532141
 Na         9.9755188926        9.7664308265       10.0584444291
 Na        10.2169629981       19.8288009454        4.5267045413
 Na        20.1452984209       19.6223248777        7.3305311791
 Na        15.8857853681       15.9586460092        9.4272070422
 Na        15.8237351377        2.7018255706        9.7694173569
 Na         3.9830434402        4.9531073867        5.9167383053
 Na        16.3010817559       15.9524273463       18.1709503182
 Na        10.6813935147       11.7654037829       19.9390655547
 Na         5.6449878155        1.1848590559       15.8866586952
 Na        11.8693981512        6.3558326041        6.0273290987
 Na         9.0821299413        2.6729241341       13.0516227286
 Na        11.5890860675       22.0597081726       17.8454951330
 Na         6.8008442856       13.7335357228        7.9875590611
 Na        10.5469379500        5.3161025324       18.8704887742
 Na        11.9372161499        6.2886956040        2.7522187239
 Na         5.5752041829       16.9702857884        8.4314850834
 Na         4.5932648149       14.4986681549       14.8752692729
 Na         1.5685220204       11.7099011902       18.2282605570
 Na        12.9323344583       13.1655427974        3.3547912991
 Na        13.7080438035        1.1595468132        7.1696639740
 Na        10.2621852515        2.3232919857        7.0809174388
 Na        -0.8222087441       20.0538261242       11.0477626729
 Na        17.6331212977        3.1339418938       12.4553260832
 Na        17.5641439229        5.1287938002       15.1049094086
 Na        10.0150320874       10.7491361183       14.9349493452
 Na        -1.7227130565       15.9650051201       15.0223005896
 Na         2.5211962373        1.0153303706       14.2549143945
 Na        12.3273985670       12.6432965758        9.0063340398
 Na        19.1632148379        5.3121124044        3.0743109417
 Na        15.1353128876       13.4466833715       15.1778209557
 Na         0.2034022098       16.3938694626       20.2524032025
 Na        15.3643179922       11.1723145343        3.9181326259
 Na         3.8977244809        9.0301248188        5.4755472932
 Na         2.6567972039       11.8416931627        3.8957510393
 Na         1.6067978122        4.1778225348       17.1029561273
 Na        18.6977827288        8.8694968523        8.3268948802
 Na        16.1591141972       10.3583274851       14.6578400632
 Na         5.9126400085        4.2281518663       16.3472245790
 Na        13.5106836097        6.6661228901       19.3052451831
 Na         6.4190132042        9.6023195420       -0.4122508199
 Na         1.1878487296       11.7653200825        9.7460993503
 Na         8.7508992292        7.5269731494        1.3487106684
 Na         2.1076984807        9.3081308457       12.4633488823
 Na         5.4580095646        3.1627170522        8.4759972057
 Na        14.8747052188       19.3339196494       16.9664421653
 Na        13.7454807246       20.6576662173       10.7006437561
 Na         6.7138682591        7.7326913475       11.9107363411
 Na         3.7613031721       10.0345033261       16.7618109540
 Si         0.8448968956        3.3080885379        6.2142050434
 Si         7.9339570208        4.0858625509        0.9858289626
 Si         4.7159013433       11.9984174786        0.6992459414
 Si        17.7484126112       16.8763054612        6.7775523129
 Si        17.1496007316        2.4581065465       19.6912843340
 Si         1.7879589414        7.7493561743        3.2423988888
 Si        18.1357213544       12.3962452973        3.3226278663
 Si         3.3108981097        1.6125894261        5.6045002459
 Si         6.0161394705        3.7904469676        3.2439760490
 Si         9.5437968368        1.6115892018       15.9145909735
 Si        17.7435492923        2.4050493220       16.8494494267
 Si         9.6875510530       17.9119072803        2.5421078013
 Si        16.2550130331       18.7693555829        4.8769649389
 Si        14.1709091072       12.8331270511       20.2221935401
 Si        19.0278578421       17.3834268989        9.5415478493
 Si        10.5566928957        3.2749812637        2.0066811405
 Si         8.4586369831       18.1408389952       19.1229024270
 Si        12.0878212256        6.2430380335       16.3740397260
 Si        17.5835237229        5.2043547309        9.4034717779
 Si        11.2987352203        8.6730890730        1.0659689563
 Si        14.6175114878        5.0202749673        4.6201415384
 Si         2.9569471790       17.0621903377       13.4772377885
 Si        17.9641337877       12.7015238011       16.1084534595
 Si         2.5162782896       20.4571599104       19.6129342881
 Si        13.7522516200       17.3615795255       19.8634535427
 Si        14.2691431654       20.3752180586       19.7237482704
 Si        13.4729210970       16.3493468370       16.9641976951
 Si        17.9792852467       18.5738134963       17.1845742604
 Si         4.4436999629       20.3309931140        2.7986883133
 Si         0.7249207714        6.8131059931       10.1488066111
 Si         8.2890490766       15.6137576999        1.1979405853
 Si         3.5795392727       18.0576704261       17.9495013490
 Si        18.1309383796       10.4308494223       20.3654382932
 Si         7.6669172424        1.6956025523       18.5015894183
 Si        19.4990063618        7.1930460462       16.9340995649
 Si        16.6900767608       14.7495985068        1.7856207435
 Si         2.6766012817        8.6728941029        8.8241227133
 Si        16.0139273767       11.4162857885       18.1151763034
 Si        18.9566923346        2.6282658181        8.8632901298
 Si         0.2164428295        9.9916606447       15.5292747023
 Si        15.9185568085       19.7931555640       12.8926737642
 Si        14.9203300524        5.1579381941        7.5930643341
 Si         3.2333820014        3.8583711154       14.4354681897
 Si        15.4276025735        2.6159174655       14.9267541672
 Si        -0.2726881319       19.3269733207       19.9100833740
 Si         1.0469793410       14.4265465177       17.2181412601
 Si         1.8441982530        6.6438887661       19.4506088595
 Si         7.2995152805        6.3431081955       18.2040028973
 Si         4.2188577219        0.6212320323        8.2638544457
 Si        15.9639049739        5.0387170111        1.7282199439
 Si        12.1577152534        3.1897474428        4.6486310993
 Si         2.5680616733       15.7059438176        3.8531477217
 Si         0.2322764788        2.9787059821       14.3877140684
 Si         4.7334991347        7.4095439389       18.6598804568
 Si        17.2974950095       17.0537042788       11.9735720517
 Si         5.3023020402       17.3415503597       15.5784397720
 Si         1.5270461472       10.7894308577        7.0172835459
 Si        14.8849589884       16.2996682826        3.5127670052
 Si         7.5739417751       19.3306697824       14.0143339694
 Si         2.0405947162        3.9410355740        1.0420420312
 Si         1.1174266870       17.1903955864       16.2172765916
 Si        16.3045988627        7.9889980062        1.2941913804
 Se         4.3755090085        8.1823729634       13.6358015221
 Se         6.9833577042        5.0409022377        6.7676764132
 Se         5.6103716030        5.3100014572       10.4105372905
 Se         8.6390496367        5.7305677474       12.8859247737
 Se         8.3299217958        2.7060575479       10.3357452344
 Se        11.3841248856        1.1757195299       12.5183868684
 Se         3.0250726695       12.0093097178       12.1365839592
 Se         5.8852907001       12.5082323394        5.0103307544
 Se         6.8389837166        9.1720181262        8.3004443666
 Se         7.5779878536       10.7369080315       12.8428793194
 Se         9.3677363176        6.9791377733        4.3411653914
 Se        10.0801131462        7.1914180506        8.7774196693
 Se        11.1193330843        8.9759372012       12.9184937198
 Se         8.7941645444       11.1040584735       17.5158074675
 Se        12.7504450533        4.9160789076       11.0630035942
 Se        15.7126780781        7.7408351118       13.4534416645
 Se         7.0108225732       16.1297434991        5.9833129759
 Se         3.4195225457       14.5509266362        8.7174812312
 Se         6.6974599912       14.9412564437       11.0111073222
 Se        10.1654223342       13.0660270221        3.4482097629
 Se         9.5725295691       13.3381605423        8.2587968112
 Se        10.7430787224       12.6615995671       11.6062692681
 Se         8.6498751980       14.2113559924       14.8511774801
 Se        16.3244068050        9.0497394546        6.3030952181
 Se        12.9148096922       11.3397751159        5.6368664954
 Se        15.0946406251       11.9842978849       12.6551975576
 Se        12.4652280148       12.0005556646       15.7594715605
 Se        13.3921829472        9.6072577614        9.7412970659
 Se         8.8990720854       17.6937141339        9.8010454699
 Se        12.0282075814       16.5989891235       13.1847813446
 Se        11.0906220122       17.5515178366        6.3909415383
 Se        13.2013003171       15.4355425155        9.1462336421
 Se        15.9118211201       12.9242949785        8.2936090064
 Cd         5.2392547439        7.0719119891        8.4404365612
 Cd         8.1682307644        5.3202244286        9.1543589011
 Cd         3.5337627923        6.4834084864       11.5187150755
 Cd         3.5696475053        6.8094389238       15.6895251061
 Cd        11.1207322891        2.8557703482       10.3421900128
 Cd         7.9113529429        0.6368830189        8.7449706111
 Cd         3.8779729513       13.2351860456        6.4180953706
 Cd         6.8087674451       10.3864982246        6.0180273019
 Cd         5.0108548006       10.9735581445       13.6115956538
 Cd         7.1439735800       12.1867505492       15.7925588058
 Cd         6.7750109518        6.7961201066        4.5082848043
 Cd         8.9602817082        8.2812740720        6.5912607838
 Cd        11.1895183222        6.1451779265       12.7650373394
 Cd         9.1779979516        5.3582924549       15.3618402503
 Cd        12.4940833541        7.1052979870        9.7863801809
 Cd        13.2917048654        8.0917429555       14.0812065238
 Cd         7.9452490773       14.1879228302        4.1916281188
 Cd         4.2991106519       14.1148279935       11.2816891663
 Cd        11.3498709104       15.2344236516       10.8663107710
 Cd         6.6706290515       21.4099105405        5.8858441973
 Cd        10.2690498012       11.8318945579        5.9790865883
 Cd         8.2381787246       13.3118462304       12.3829419282
 Cd        11.4189215936       14.5005809977       15.1932296756
 Cd        13.9712742817        9.5996790808        1.5072770190
 Cd        14.5147125099       10.6626176811        7.5338468917
 Cd        12.6309335212       11.4742009544       13.0987905281
 Cd        13.2384935083        9.6852779101       17.2996272495
 Cd        15.4121500158        9.4182842053       11.3655087004
 Cd         8.2691491722       18.2420872319        5.7741895830
 Cd        10.0006709810       18.5826960622       12.1125279861
 Cd        13.8366365388       17.5547201805       10.8638941533
 Cd         9.9306431496       15.7671934766        7.5930465892
 Cd        17.1520658563       11.8286750469       10.2490977201
