438
 i =     7700, time =    15400.000, E =    -10932.3558548302
  O         4.0554371563       16.2522910709        3.3842266987
  O         3.4614115871        8.7344970488       10.0449412845
  O        14.0539377208        1.4845454664        1.9974483337
  O        11.9741858251       16.0435739122       17.2278936948
  O         1.5878037401        7.4010618036        1.5359584987
  O        15.6638253958       16.5891979104       11.9899198494
  O         3.8760269489       11.4097331791       18.6815365293
  O        17.3384058872       15.3927479060       19.7322614565
  O        15.2605934055       13.8986340006       20.8625138863
  O         1.4836834003       15.8655200643        2.5301328209
  O        11.1063045458        7.4381383951        0.4688288592
  O        17.9554594466       13.6429983682        2.0626268717
  O        10.6345550456        6.7106005164       16.6870550518
  O         1.2206519811       14.5748648767       18.7686230035
  O        18.0185441522        3.0180416731       18.2915532875
  O        11.9175999293        1.9709289531        8.6673386442
  O        13.7330462828        1.2694096948       18.6262489645
  O        17.2146695292        6.3297985671        1.5802636444
  O        10.7114733217        0.6995175745       16.2174670768
  O        15.5777776884       19.4910182861        6.3609265307
  O         4.7895122017        8.4244581080       20.2627507341
  O         3.3518167092       18.7556162527       12.6028503980
  O         1.0939938788        7.9571582387        8.9213074566
  O        16.3113138047       16.6327475098        7.6402566944
  O        17.3311863932        3.7934622568        1.4335055911
  O         7.3902166218        6.0160662701       16.7510062539
  O        16.0061918009        1.8349465573       19.4558634703
  O        -0.3244183416       18.5272857325        2.0599745685
  O        -0.1971799266        4.4046697789       13.6159606116
  O         2.1446062513       17.9877097915       17.4754764565
  O        11.8765460410        3.9071958055        3.1050470736
  O         0.7044121673        2.4396413116        7.5497418541
  O         4.4169643863        2.9574717122       14.4331671776
  O        16.8219182021        4.5758718840       10.6298482118
  O         5.5702055417        5.3929710393        4.0435207558
  O        11.5424221969        4.0594764755        5.7539000302
  O         4.2237828739       18.8110325240        9.3351636122
  O        14.5517228388       15.3441312162       16.4290213208
  O        17.2643090224       11.0168877666       18.9650748657
  O        14.9292890172        5.0075744052       20.0798945517
  O        18.8814393332        3.3118282877        5.1732829934
  O         3.2624087536        8.1743092446        7.4452196762
  O         4.2482502578       17.2913871717       18.8350415506
  O        13.1846093364        7.8201511758       16.1805386861
  O         1.9023070847        3.3973293147       15.2111896576
  O        15.8192967817        4.9586483875        3.2723579770
  O        14.5050772083       11.5373533629        1.8738210196
  O         9.6806307217       18.9360405544       20.3557806094
  O         5.8402365827       19.6781689574        2.6187797135
  O        17.0918206992       18.8655558253       12.8476260269
  O         4.9886851971       12.3767378019       15.2287950061
  O         0.6835778418       16.0441316698       16.4699031404
  O        11.3409672306       18.2143325405        2.9578430890
  O        17.5774545299       11.0235872523        2.3303149090
  O         9.4436446761       16.5851602330        2.1283460192
  O         0.4832292871        1.8071332536       13.5824492641
  O         7.2592151588        3.1232559161        4.2406785967
  O         0.8381085910       18.7101622488        9.8911966154
  O        18.3579714908       20.8016736761        1.1150323379
  O         3.5404666018        4.8317308514        1.4244404052
  O        17.8747668707       13.7127665052       14.7751492300
  O         0.0153068879       13.3832041015       16.9639668949
  O        14.9291529495       12.4545104696       18.6696573498
  O         0.7738449368        7.4860896054       11.7482014528
  O         8.0157556216        2.8148994790       19.8071200916
  O         0.3569683326       11.0325574293       20.0262407516
  O         3.9215868962        2.0766474891        9.2695704197
  O         9.9544135463        3.2680724979       15.4561349993
  O         0.6113642315        7.5900870969       18.5258781609
  O        12.7326300094       13.2253684767       20.1043912347
  O         6.0403066199       19.0476787874       14.6329172886
  O         3.4599142493       12.1344421566        1.8724376322
  O        14.3540452033       16.5680324628       18.6172320335
  O         2.5626224094        2.8084654721       19.2782879908
  O        19.5119053555        9.8797186426       13.7451383194
  O         7.0616873579       15.4647286897        2.4378533684
  O         0.3587144404        7.5539626514        3.9829220836
  O        17.7537916716       17.7263456628       10.4978145308
  O         8.8584922105        2.0385908443       17.5025762819
  O        13.8644606158        6.1707507988        7.6659405515
  O         2.0526968411       10.4929645229        8.6007843512
  O         2.3398767969        9.3307673282        3.3701764114
  O         8.4723614985       18.2899662699       13.6837093073
  O         3.5329859880        0.6386391347        6.9500289462
  O        12.2788387434        5.7240724707       14.8403278436
  O        12.2633116074        9.8205527813       19.1219715370
  O        15.7381467309        7.9650684825       19.4812992714
  O        10.2276476119        9.8675246059        1.5032252116
  O         7.0750840279        1.1292957961       12.7491863962
  O         8.6496306113       20.5055804766        6.2921790132
  O         2.8129336610       11.6578644141        6.3327547661
  O         2.9086012087        4.8659482739       13.2392384157
  O         5.6466884731        6.1184178148       18.8103692009
  O         1.9820585718       17.1011402651        4.9723807928
  O        17.4503336350       20.1676123136       16.8148255413
  O         2.5799883505       14.1329028250       16.4848209282
  O        -0.7787867986       18.6003201670       18.6899175075
  O         1.4144862928        4.8098718083        6.2946187275
  O         3.8932114315       20.1660021434        4.3325436825
  O        15.2160269240       17.9734741641        4.0303105017
  O         9.3454093508        4.3278951094        2.1567924868
  O        12.3859991519       18.0420942458       19.6050612002
  O        14.0859044472       16.6451262469        1.9062276120
  O        16.7939518286       12.7785925398       17.0222605124
  O        13.7280539421        6.2407608036        4.4303418304
  O        17.3400802561        9.8061864903       10.3386865666
  O         5.0083289633        8.3577058520       17.5270902893
  O         1.2987623375        5.2127036899       19.4168803882
  O         0.2572556917       12.4007715458        3.4008476878
  O        18.5950490607        6.5874622016        9.7574567089
  O        15.0445619698       18.7618661468       19.9883121967
  O         1.6236505371       10.6244747300       15.9406851995
  O        -0.5118994638        2.8375797636       15.8338027983
  O        14.2491618933       19.1704030699        9.3385041303
  O         5.9985990916       11.6259808292        1.1252082507
  O         8.5867383373       18.6296284105        3.4482741509
  O        15.1256415379        3.6554243340        7.7226770221
  O         3.1424420927        6.9530189097       18.6583239351
  O         0.5422986189       10.1772700751        6.4758475835
  O        12.3539182553        1.6039988055        4.9772965448
  O        18.6855926482       17.7425752823        8.0026183190
  O         9.1093048889       17.8350394255       17.8790052011
  O        17.0071435588       20.0071509129        4.0552482217
  O        18.5107954409        4.2268491981        8.4935063981
  O        18.7689345496       13.3751584893       11.1051873670
  O         3.7759570326        4.9760615826       15.9300700056
  O         4.5643459442       16.9612861516       14.3735398081
  O        15.4732020793       10.3848944871       17.1032574871
  O        16.4484667420       15.7780140705        2.8931284413
  O        16.1311319711        1.4568153370       14.2524813305
  O        15.6294649382        4.0163540155       13.8266169444
  O         6.0327792545        0.9083538470        7.9407606632
  O         1.9263583772       17.5782323789       14.6302215905
  O         7.6111931939       17.3710867186       20.0152549402
  O         7.6139711363        7.9459635397       18.4648774406
  O        13.5981032052       17.9952158992       16.3535884870
  O         1.9216537621        2.2613669630        5.2632563057
  O        16.3171759183        3.1821637076       16.2534813891
  O        14.0663174879        3.6991063932        4.7129253563
  O        -1.1716273003       16.4889326595       12.8782492993
  O        18.0446207543        8.8210655167       20.4713600063
  O         0.2639085735       15.9588805103        9.5353159997
  O         6.1629307432        2.5000702234       17.8557263791
  O         6.4676383573       16.7577267084       16.1695737221
  O        16.9446100915       17.5984041902       16.6832423348
  O         4.4570932153        2.8249519340        6.0414931595
  O        16.1074853629        1.4369915443       11.5257548103
  O         2.7887088257        6.7013464318        3.9167956630
  O        17.7614285802       21.0350444814        8.5655419748
  O        -0.0226259072       18.5720867235       16.0344588791
  O        15.9267121404        8.4203084585        2.7454075546
  O         1.8511832721        5.7031896710       10.1388832471
  O         1.3213629118       19.7054170900       19.7458679253
  O         0.5407287220       12.6088000818        7.5628360933
  O         6.7182697166        4.5280998581        1.9439973462
  O         2.6846985777       16.0666500663       12.5323972644
  O         3.4009573195       20.3467567981        1.7763439944
  O        11.2578456083        3.0996981522        0.5532615505
  O         3.6075154082       19.8820696770       18.5389778502
  O        16.4922607376        5.9769920097        8.3345744180
  O         2.4418957783       14.4438648488        4.7483458941
  O        12.5639927156        8.6656879992        2.2314422508
  O        12.8673429185        5.3290185609       17.3945855020
  O         8.6087559124       14.7857758177       19.6292902259
  O         6.1664496033        9.3586899871        4.6046592506
  O         7.4427247822       19.6974809905       19.0847744109
  O         8.2845892674        5.5015270384       -0.0097973540
  O        14.3459563917       19.3281874217       13.0787656108
  O         1.2356365157        3.6967694599        2.1278593373
  O        18.5226830901       15.4661127342        6.3977358681
  O         8.2649104070        1.2097032901       15.0627579609
  O         9.0481246589       10.6608449091        5.3393966421
  O        17.1246038801       12.5825279491        4.4177248178
  O        18.2942510458        6.4691460962       16.8717134942
  O        18.9422728177        8.9008002316       16.3083446914
  O        13.9835120009        2.4678536262       15.4499151881
  O         4.4860094195       18.6571580329       16.5846292197
  O         0.4935908627        2.6002917751       10.1986291003
  O        14.1760606294       15.4358043863        4.4327122080
  O        17.5900103959       17.7634085000        5.4674872562
  O        15.8614238414        5.4373595028        5.9070920792
  O        10.0566121766        1.9406711684       22.2067661802
  O         4.9900828446        2.8372066677        3.0421252646
  O         1.3509187407        6.7317127326       16.0612621242
  O        18.4624614687       11.2877342517       15.5227991718
  O         4.8132225493       13.7640442144        0.2302205476
 Na        13.4947795403       14.7334291753        6.6110598627
 Na        -0.8571854010       19.6066294491       14.4162142742
 Na        14.2280146578        3.1507943450       17.5789260059
 Na        14.3450210980       17.7676155397        7.3288810885
 Na         4.2828201412       13.3190014988       17.3806312248
 Na        13.3198452430       19.3369808132        3.7547844633
 Na         5.2523240765        3.8226736027       19.7011254980
 Na         2.2303786045       18.3763695229        2.6845876396
 Na         6.0616996956       15.9878383891       18.4264925307
 Na        19.1732348154       21.3402429947        3.4877845499
 Na        19.1543650488       17.1780965361        3.9492279229
 Na         3.2641014096       15.6801625239       20.1393312591
 Na        14.6657807710        5.7149444407       15.5222370263
 Na         2.2582777153       20.4545792759       10.8982812975
 Na        11.3614079501       18.4854082542       17.6077605817
 Na         7.1050169244       16.5678004619       13.4487301682
 Na        13.4620913845        3.5009781015       20.5803357456
 Na         5.2684804409       -0.0044024344       11.5873840594
 Na        19.7433593984       13.8179251472        5.3258293037
 Na        11.6985697279       20.1470077346        1.3965311456
 Na        17.0014718215       14.3882077159       12.6145957170
 Na         2.3572237299        9.8424555571        0.9490160282
 Na         4.4191413058       10.9497615424        9.6076692736
 Na        12.0337781317        3.4818440777       14.5367150976
 Na        12.8006181256        3.9588623956        7.8817777162
 Na        14.0627991575        8.4677469166        3.9926385839
 Na         1.0299820534        6.5754991453       13.8457902461
 Na         2.5028809970       12.3950692693       14.9337634051
 Na         4.1134094770       17.5253373246        5.5609797862
 Na        18.4321511207        5.4317830682       18.8439210197
 Na        11.4399512836       15.6979827976        0.9238529915
 Na         1.2873142753       16.0202773884        6.8025690417
 Na         7.9958297794       20.5591135343        2.4348087369
 Na        15.4207098241        2.2833428545        3.5630936552
 Na        18.7744789642       11.9876874251       13.0541581110
 Na         9.4614685054       15.5091659213       17.7599050702
 Na        16.6521975143       18.5550567560       21.6948225132
 Na        12.6606695111       19.5956408966       14.8112883380
 Na         2.8915834505       17.2726288968       10.2109475128
 Na        14.6063122096       17.1126512344       14.1605761208
 Na        13.1137307843       14.4016102027       11.8280275924
 Na        18.2563434465        8.4610151484       11.9601649922
 Na         4.8653354532       10.3188272866        2.8107584361
 Na        15.1897612612        5.2155277703       12.0854008560
 Na        10.8554071896        9.8984935382        3.8742611061
 Na         7.0750297064        8.2663922491       16.1500964686
 Na         5.7116043858       18.7909665168        0.6864741984
 Na         7.3420295583       12.9157440845        0.0069506115
 Na        16.1693993997        8.2340894543        8.9352429352
 Na        11.5280063560       16.1472487336        4.0992201535
 Na        16.5489985910       19.0578368407        8.6935520149
 Na         5.0264979636       14.1731976868        2.4871411924
 Na        16.8000764859        2.2902384716        6.5363037877
 Na         8.8140252708       17.6838801142       15.7633060465
 Na         6.2349250614       17.5265841100        3.2889033210
 Na         4.5912132370        6.5461479980        2.5041135876
 Na        18.1018321074        5.3132237713        6.1620956900
 Na        18.0309107280       11.4767820255        6.2863298269
 Na        17.5647401281        7.5623779487        4.3026205059
 Na         2.3338672809        3.7505369985        8.6877288527
 Na        13.0777638855       13.7828312340       17.8456450150
 Na         9.7102523508        8.6906531053       17.8606627388
 Na         3.0262533878        4.1611190403        3.6238412911
 Na         1.3887077831        7.0701973112        6.3956798564
 Na        18.6890817877       14.2343697725        8.4581590142
 Na         1.4626055369       13.0782910962        1.8143538252
 Na         7.8662072388       10.9646477088        3.4154876908
 Na        19.3340513202        9.9048197777        4.1632962365
 Na         0.5478574451       15.3812449127       12.0595507520
 Na        11.8428980985       19.1270278164        8.8823631992
 Na        16.9536209936        8.5543113791       17.4059471802
 Na         1.0344159220        4.1671298260       11.7048694792
 Na        16.5087792979       14.5933006751        5.2394502906
 Na         9.0596629925        4.3735285564        4.7294318947
 Na        -0.7976540396       13.3989811810       19.1832556891
 Na         5.6753155202        3.2853487595       12.5412711922
 Na        10.3513557784        9.7629995968       10.2516979117
 Na        10.3586383065       20.1492384045        4.5370175520
 Na        20.5031882553       19.5941972378        7.5423731340
 Na        15.7979817004       15.4864943644        9.5040799379
 Na        15.8880801144        2.5539981126        9.4519752043
 Na         3.8141396893        5.6986225836        5.5943387636
 Na        16.3326282759       15.8924310372       17.8129486649
 Na        10.8416150440       11.9142337823       20.2265297925
 Na         5.1721466736        1.5678655757       16.1317653425
 Na        12.0961736196        6.3139894353        6.1198374577
 Na         8.8742440913        2.8210656784       13.0886562431
 Na        11.4535987263       21.2692299080       18.1128206095
 Na         6.7057191098       14.4435228230        7.7211659524
 Na        10.7240977470        5.4910173449       18.6604407409
 Na        11.8651670370        6.3632788891        2.7383002241
 Na         6.2128879256       17.5863613432        8.8855624557
 Na         4.0327234472       14.6740660441       14.4815059495
 Na         1.5663369219       11.3879781596       18.0889151503
 Na        13.3100660110       13.5332476172        3.1840189817
 Na        13.5320297451        1.2831654258        7.0483890680
 Na        10.4930280971        2.2106045605        7.0116204694
 Na        -0.9119300787       20.1579832003       11.1057446313
 Na        17.3696188039        3.3582864823       12.4484726325
 Na        17.6329974912        5.1655479885       15.1449867363
 Na         9.7581753788       11.3378280705       14.7698649535
 Na        -1.1793844214       16.0319232047       15.0832546811
 Na         2.9472996661        0.8911872746       14.2142120746
 Na        12.8063096700       12.5140903372        9.3379151438
 Na        19.5123546581        5.2158670699        3.3106618179
 Na        15.0195412622       13.5368839567       15.4357045747
 Na        -0.0028879546       16.0331509903       20.3070473789
 Na        15.5463406492       10.8392249444        3.8258720781
 Na         3.7607945634        9.4332813958        5.2583700091
 Na         2.3779283707       11.7647984463        4.0032011173
 Na         1.8835516844        4.8306644339       17.1470936630
 Na        18.7573098701        9.5626080374        8.5361330153
 Na        16.2122732532       10.1489549392       14.9309331525
 Na         5.8138295303        4.3312619222       16.3634230086
 Na        13.7856109789        6.5301899126       18.9711050129
 Na         6.2752707999        9.8839060371       -0.2062169487
 Na         1.2286138667       12.7008108687        9.8008287291
 Na         8.6776255123        7.7638218542        1.4033760586
 Na         1.9435779668        9.4838513364       12.3646567339
 Na         5.7170129553        3.7575682413        8.8110865472
 Na        15.1116358181       19.4230348843       16.8188957970
 Na        13.5984299524       20.7858859241       10.8687674393
 Na         7.0084195502        7.8756591737       12.1866562267
 Na         4.0947748630       10.2977746003       16.4983640568
 Si         0.8904581387        3.2736531578        6.0978259986
 Si         8.0939032147        4.3397966325        1.0820024854
 Si         4.4870411246       12.2025004988        0.6014883750
 Si        17.7284903427       16.7934101033        6.8931487825
 Si        17.4324869613        2.5059299362       19.7595451502
 Si         1.8310862740        7.7679204359        3.2097204693
 Si        18.1027598146       12.4431900325        3.1499622016
 Si         3.4234833281        1.6537684759        5.6898583941
 Si         6.1635565805        3.9951253062        3.4741881277
 Si         9.5184534912        1.7800274779       16.0039891474
 Si        17.6718100106        2.3756019644       16.7867835490
 Si         9.8284247428       18.1462507304        2.4927042610
 Si        16.4247925603       18.9188410612        5.1068079794
 Si        14.2472946919       12.7002582470       20.2292330747
 Si        19.2238895236       17.4708314365        9.5882812893
 Si        10.6674845390        3.2524537555        2.1296756527
 Si         8.5498355906       18.4699722963       19.2087693377
 Si        12.1650948776        6.3754402640       16.3284101309
 Si        17.5507835065        5.3027590090        9.4225399263
 Si        11.4467876928        8.9538349531        0.9887751602
 Si        14.7637912533        5.1499456372        4.5876611365
 Si         3.0843825800       17.3611261434       13.4294213893
 Si        18.2082711735       12.8099464447       16.0403116078
 Si         2.6838020249       20.5874411629       19.6719907132
 Si        13.8479891973       17.5379414883       19.8640651771
 Si        14.6287762914       20.3580931178       19.9391802265
 Si        13.5475725609       16.5784486906       16.9959248464
 Si        18.0335225850       18.6407150127       17.1402486713
 Si         4.5832744958       20.5987855803        2.9308450286
 Si         0.8617396323        6.9283306073       10.1909168959
 Si         8.0835366306       15.8644120904        1.3869954335
 Si         3.6441185056       18.3750030814       17.9462024890
 Si        18.2359307730       10.4643255178       20.2691167351
 Si         7.5363392719        1.9722137414       18.4996689027
 Si        19.5528663340        7.4492591632       16.8686547415
 Si        16.7016649795       14.6476102738        1.5881196074
 Si         2.5058604049        8.8203905622        8.7335320880
 Si        16.0991182821       11.5505300299       17.9637397325
 Si        18.9904102311        2.6022105311        8.8178890767
 Si         0.3336101281       10.0838473011       15.2999857097
 Si        15.8005307444       19.9935859909       12.8416723152
 Si        15.1963502598        5.2636818644        7.5166558062
 Si         3.3387656381        4.1192020989       14.6350902692
 Si        15.4149498764        2.7852970812       14.8623992825
 Si        -0.2471707493       19.3526134332       20.0549448791
 Si         1.2383587400       14.6256171479       17.1960327099
 Si         1.7027814347        6.8069210401       19.4538839935
 Si         7.1838791028        6.4559985131       18.2849969181
 Si         4.4694214332        0.7796881860        8.4856368929
 Si        16.1499443674        5.0341651801        1.6866292521
 Si        12.4104673668        3.2474183398        4.6127433161
 Si         2.4812069919       15.8810562342        3.8776694009
 Si         0.4362398064        3.1230963794       14.4433327080
 Si         4.6571509389        7.5599327053       18.9031102178
 Si        17.2021936917       17.3625435693       12.0451316034
 Si         5.4467880212       17.7922080877       15.5162767825
 Si         1.4776173923       11.2867907694        7.1450643278
 Si        14.9732054457       16.4329529801        3.3669796504
 Si         7.5079290235       19.6183519583       13.9474545763
 Si         2.1972238030        4.0867356943        0.9876841710
 Si         1.2733125193       17.5473126785       16.1572723992
 Si        16.6944385247        7.9070791383        1.3685873179
 Se         4.3878856769        8.4250155358       13.7842596145
 Se         6.6195664302        6.0205585476        7.2285011282
 Se         5.6718818681        5.8332684900       10.6691992723
 Se         8.2816880971        5.6105706146       13.2389858113
 Se         8.3425697468        3.2386651606       10.1499282083
 Se        11.2996582826        1.4386229150       12.5503288162
 Se         2.9444474436       12.2894516215       12.1763741524
 Se         5.8662125552       12.8507625928        5.1903050367
 Se         7.0361880936        9.9031119828        8.7932453384
 Se         7.5530012093       10.8343495803       12.7448047998
 Se         9.4426959487        7.2637204472        4.2737816001
 Se        10.3241414675        7.5452228798        8.4518027005
 Se        10.7416835744        8.7135880072       13.1191496241
 Se         8.3626665049       11.1224765328       17.2694367068
 Se        12.4070046460        4.9267676506       11.1245505917
 Se        15.6940033124        7.7066879043       13.4986271960
 Se         6.9332737973       16.5476455895        6.1554386840
 Se         3.8998544365       14.8771804175        8.7213356546
 Se         6.9418045377       14.7217912048       11.0146879358
 Se        10.0071491993       13.6534441581        3.6809233169
 Se         9.3564713770       13.3892981336        8.1869827807
 Se        10.8199611909       12.5006638659       11.4509354190
 Se         8.6916441572       14.5587444307       15.0793511119
 Se        16.4236130533        9.0690504267        6.2924803406
 Se        13.0018014568       11.4623887353        5.5881128400
 Se        15.0774385968       11.9059229084       13.0889452565
 Se        12.3840545618       12.0368684379       15.6549224288
 Se        13.5143276529        9.5428941082        9.6448944865
 Se         8.9092025909       18.0098494508        9.8264948295
 Se        11.6003289977       16.3131579481       13.2846325871
 Se        11.2983339267       17.6144722815        6.5130894651
 Se        12.7138176976       15.8697642375        9.3310605473
 Se        15.7293185246       12.9671096159        8.2899584943
 Cd         5.1807601690        7.7331309869        8.6438700365
 Cd         8.3567971651        5.8273823785        9.0654001776
 Cd         3.4338182036        6.3973106155       11.6238250000
 Cd         3.6961013340        7.1900017242       15.9599365595
 Cd        10.9255658253        2.7966065332       10.2671686918
 Cd         8.2812562057        0.9740754936        8.6445255570
 Cd         3.6379534121       13.7943998022        6.4766788298
 Cd         6.9488223394       10.6925198062        6.1257602957
 Cd         5.0445318586       11.0846512335       13.5183773290
 Cd         7.0357388017       12.3677988030       15.6338313737
 Cd         6.9050190642        7.3488662423        4.9181554432
 Cd         9.3255364322        8.8017891319        6.5230154211
 Cd        10.8694330586        5.9088027348       12.9317267162
 Cd         9.2480057452        5.4060836344       15.5797158297
 Cd        12.8708242894        7.1042849812        9.5518259679
 Cd        13.1571227452        8.2226405478       13.8083499973
 Cd         7.8150081619       14.6066083798        4.5548830792
 Cd         4.4784636364       14.1372512749       11.1036743512
 Cd         9.4971341231       14.5527956828       12.5392145162
 Cd         6.5123804374       21.3057381165        5.9966944423
 Cd        10.3857439865       12.4154143746        5.9880428182
 Cd         7.8367489223       12.1042701935       10.3446741405
 Cd        11.3523756601       14.6429912793       15.4794816608
 Cd        14.1951230641        9.5284284017        0.9755884356
 Cd        14.6130933294       10.6351901214        7.4008528216
 Cd        12.4014262457       11.1944488642       13.0227651126
 Cd        13.3049214871        9.8191385669       17.1382513638
 Cd        15.4671293218        9.8036444143       11.4974822894
 Cd         8.8565429752       18.2755044510        5.7140617521
 Cd        10.0999406943       18.4667543082       12.1757244356
 Cd        13.9235138804       17.7429156194       10.8597128706
 Cd        10.0490290228       16.0172252152        8.3713250536
 Cd        17.2957124923       11.9354300370       10.3349878425
