438
 i =     8000, time =    16000.000, E =    -10932.4127612956
  O         4.0388145830       16.5541369749        3.0663224510
  O         3.6980169033        8.9615758743       10.1411305564
  O        14.1516313375        1.3023452615        1.9603585000
  O        12.1320883069       15.9192397029       17.1657009043
  O         1.7389072994        7.4867232248        1.5398912209
  O        15.7709159153       16.4885734121       12.0438136572
  O         3.8627877428       11.5193972660       18.8999696411
  O        17.5534242560       15.8787684752       19.9739614186
  O        15.6035252442       14.2349720275       20.5887141735
  O         1.5931383423       15.7539785752        2.8108127398
  O        11.4813164567        7.4920657835        0.6829660611
  O        18.1668598822       13.8440977402        2.1722984161
  O        10.5694246248        6.5968381663       16.9018153346
  O         1.1348461851       14.6293036711       18.8005884748
  O        18.0258857496        3.2115906650       18.5034461322
  O        11.9266849924        2.0864653910        8.6891928139
  O        13.4567913123        1.4505392192       18.7350482972
  O        17.1222617210        6.5473887340        1.3336710086
  O        10.7347394667        0.7293340602       16.1916601083
  O        15.6568543310       19.5751068604        6.2204870642
  O         4.7627303736        8.2522881325       20.1607888198
  O         3.0814485809       18.6625073696       12.7042279995
  O         1.2410845323        8.2665321904        9.0631359335
  O        16.4456869069       16.7098490200        7.4437102407
  O        17.0946220750        3.9673140395        1.3948655612
  O         7.5587767249        5.9335330229       16.8420261141
  O        15.8721989038        2.0257789253       19.5133145876
  O         0.0735211598       18.6331106844        2.0455456803
  O        -0.2229938666        4.3153880996       13.7027838060
  O         2.2491301575       17.7132546320       17.5757146745
  O        11.8182490686        4.0592051946        3.2067270416
  O         0.8508467347        2.4195558463        7.6430502257
  O         4.6101191007        3.0162429539       14.2720493136
  O        17.0416060116        4.8976397148       10.8855400556
  O         5.4398189139        5.2523300809        4.0046162365
  O        11.6967129344        4.2838713572        5.7690581660
  O         4.4152865220       18.8499018154        9.2889089811
  O        14.5068982623       15.4790303416       16.1550938585
  O        16.8848222441       11.3099830794       19.3746214796
  O        14.6510021343        5.2486397487       20.4358001622
  O        18.6906280455        3.1671660840        5.4862481152
  O         3.3763212528        8.2727288405        7.5425813702
  O         4.4510982348       17.4299769824       18.9384155037
  O        12.7618155785        8.0802044452       16.3424145123
  O         1.9913306629        3.1646858625       14.9207630797
  O        16.0311744967        5.4005710422        3.4273236687
  O        14.6400966291       11.9425415456        2.0539188414
  O         9.6553635395       18.9983171013       20.3808575072
  O         5.7838908758       19.6479806662        2.6607192025
  O        16.9864287380       18.9181514068       12.6389358600
  O         4.9041938243       12.2573676289       15.1403511453
  O         0.5551826009       16.0250362902       16.4957948032
  O        11.4035093143       18.5462206477        3.1575045338
  O        17.9856710453       11.0960921250        2.5513494987
  O         9.7345320944       16.6219835316        2.2222823255
  O         0.1800769395        1.5652386322       13.8147319544
  O         7.2811218496        3.1405005287        4.0790933281
  O         0.8871405691       18.5928241513        9.9941881691
  O        18.2354053915       20.8110500668        1.0772796711
  O         3.4315749844        4.8876765949        1.3182786159
  O        17.5372620913       13.8761934012       14.8904462037
  O         0.0307960199       13.5890907471       16.7791382296
  O        14.6915356232       12.5285231012       18.7575976273
  O         0.5935788162        7.5177456441       11.5782553678
  O         8.1290111675        2.8921319166       19.6775720767
  O         0.1194241373       11.1663161896       19.7434030002
  O         3.8564350336        2.1149611961        9.1519076890
  O        10.2077252962        3.3165456472       15.4593210558
  O         0.5724263561        7.6531606323       18.5027051126
  O        12.9131094679       13.6601218319       20.3397639435
  O         6.3203060747       19.0974403253       14.9289360463
  O         3.6445685539       12.9590528140        1.8235215971
  O        14.3112252348       16.4851512381       18.5529458884
  O         2.4296018834        2.8808586960       19.2732518090
  O        19.4594667993        9.9374785417       13.8054607286
  O         7.3152521092       15.4363027530        2.3373037595
  O         0.4950996199        7.6763531467        4.0371931041
  O        17.6640780105       17.7182647433       10.4415634874
  O         8.8730600480        2.2539578261       17.4171940181
  O        13.9256452262        5.9304022497        7.7977850823
  O         2.2974934924       10.6900478839        8.7180174096
  O         2.6757209601        9.2317363914        3.3765144526
  O         8.3670887175       18.3425062473       13.5535031330
  O         3.6053647533        0.6121114040        6.8951308483
  O        12.3230343926        6.1194616443       14.6979340440
  O        12.5816314459        9.9299253062       19.4213844914
  O        15.3958938091        8.2214187905       19.4311252248
  O        10.2435477986        9.8804177478        1.2674840797
  O         6.9829474257        1.1380438873       12.6634492988
  O         8.7249891846       20.6153791059        6.4178613700
  O         2.7511569443       11.8243320427        6.3406892298
  O         2.9150875300        4.7659941334       13.0335654177
  O         5.6995220960        6.1179074338       18.8671739960
  O         2.1822653732       16.9405573130        5.1415472358
  O        17.5930088320       20.3450455857       17.0499831580
  O         2.6381353769       14.3318935192       16.5456552080
  O        -0.9344904971       18.6411487441       18.9244939011
  O         1.5121365224        4.7038708571        6.1685647914
  O         3.7935054164       20.3140811907        4.2901652275
  O        15.4349969353       17.8663228958        4.2184475231
  O         9.4478748294        4.6265210444        1.9982015086
  O        12.4749429702       18.0129294987       19.8042250988
  O        14.5238446051       16.9090045040        1.8771465999
  O        16.9327376798       13.0164254076       17.3775304302
  O        13.7734027459        6.4992596704        4.5290827279
  O        17.1062042405        9.6808277428       10.1955614168
  O         4.9595710321        8.1305278068       17.2383537958
  O         1.1611168478        5.2514970047       19.3741509138
  O         0.5706505826       12.5117834908        3.6689290458
  O        18.5798463379        6.6665241005        9.4997834815
  O        15.1162566995       18.7977597209       19.5203716162
  O         1.6545689998       10.8400756613       15.8923808369
  O        -0.1296481015        3.0425601484       16.2068921129
  O        14.4323350467       19.3300030836        9.3600703762
  O         5.9580103014       11.6182489762        1.2999927027
  O         8.7408948200       18.7708416521        3.5782505724
  O        15.0421146847        3.4883028196        7.8145515784
  O         3.0621658964        6.9547736740       18.5787794619
  O         0.7824395471       10.0317424372        6.5555299336
  O        12.5863495519        1.9173365357        4.8356852562
  O        18.8212956092       17.8717230799        7.9778142072
  O         9.4335165112       17.9577937921       17.8971549286
  O        17.1080112298       20.0512790440        4.0535912654
  O        18.5328391981        4.1550415013        8.7546575909
  O        18.5671396312       13.2376083490       11.1975604497
  O         3.5948149382        5.0138930498       15.6833997057
  O         4.6282165290       17.0658478177       14.2976065199
  O        15.4673021659       10.6838436953       17.0613245821
  O        16.6124732204       15.8445826839        3.1375448843
  O        16.1610356249        1.4010155675       14.1917678771
  O        15.8544410546        4.1550176638       14.0734137628
  O         6.0334895508        0.9586480130        7.8275190477
  O         2.0007605620       17.5537196937       14.8208545217
  O         7.7229130491       17.2975632423       19.8063953100
  O         7.7202340330        7.9758074538       18.6785340495
  O        13.5663014423       18.0368204347       16.2728468826
  O         1.8929404235        2.1659634415        5.3633499960
  O        16.3293521315        3.0307162425       16.3811509022
  O        14.0853894516        3.8645118270        4.3448873847
  O        -1.1329049019       16.5608164725       13.0011035704
  O        17.8947918519        8.9688761884       20.2608661555
  O         0.2428421159       15.9725356241        9.5386957867
  O         6.2318245065        2.5033680084       17.8476913053
  O         6.4152278520       16.7335203073       16.1660121653
  O        17.1239451605       17.7839589232       16.6908929799
  O         4.4245178005        3.0704308834        6.0068882088
  O        15.8433672741        1.7504230923       11.5713386279
  O         2.8687414240        6.5114320391        3.8509599247
  O        17.9149082335       20.8050547440        8.6150678731
  O         0.1484021640       18.6180105968       16.3444016912
  O        15.9537014129        8.6835843343        2.7394181198
  O         1.8569152237        5.8585876011       10.0720489303
  O         1.1486062124       20.0004811998       19.3403871108
  O         0.4430889382       12.4335933637        7.7146351924
  O         6.7867583868        4.5428324831        1.9164161654
  O         2.8405186562       15.9855473107       12.6876623483
  O         3.1958364852       20.4327638995        1.7376120270
  O        11.4602179724        3.4446269094        0.6202057201
  O         3.5347757324       19.8754483050       18.5383051906
  O        16.5221034010        5.7503092022        8.3074597759
  O         3.1281409282       14.5247165256        4.6619030805
  O        12.6202030182        8.9821397904        2.6183033854
  O        13.0801845450        5.4470369269       17.1351405153
  O         8.9603811179       14.9656394827       19.6391970119
  O         5.8979760369        9.1620789935        4.6366415569
  O         7.6218951823       19.8104724055       18.8264861793
  O         8.3286008208        5.5352202576       -0.0397869069
  O        14.4469377562       19.1393387202       12.8210126531
  O         1.2528341142        3.7226693390        2.3087076025
  O        18.7771839929       15.5912507202        6.3384474284
  O         8.3794104929        1.4633715097       14.8636175480
  O         9.3032667635       10.2971746178        5.3712003926
  O        17.4373919865       12.7334706471        4.5629968587
  O        17.9810582614        6.7205482957       16.9510916555
  O        18.9853240738        9.0093677591       16.3170020820
  O        13.9612066695        2.4767847418       15.2809768904
  O         4.4443690825       18.6593396382       16.4831737871
  O         0.4876397428        2.4464718450       10.3287330071
  O        14.2094163447       15.3926308878        4.2142601955
  O        17.8095265315       17.9743788036        5.5630345334
  O        15.7225502108        4.9947159116        5.9740063802
  O        10.2251683861        2.0643314759       22.1148011947
  O         4.9749464481        2.8029834992        2.7760734730
  O         1.0947471736        6.7482647829       15.9701040506
  O        18.4533565249       11.4036055929       15.6728868495
  O         5.3660893201       13.8986335110       -0.0081759695
 Na        13.5118593342       14.5972585569        6.6920696785
 Na        -1.1298703133       19.3249444092       14.4153318808
 Na        14.0778266587        3.2821042738       17.4228801387
 Na        14.3399450038       17.8817834231        7.4032061439
 Na         4.4229587123       13.2991895651       17.3728485163
 Na        13.3414306916       19.3012696993        4.0820698017
 Na         5.0407503560        3.8426501958       19.5771251738
 Na         2.2334305855       18.3531811840        2.7220104629
 Na         6.2403598243       16.0842440600       18.4530859237
 Na        19.0321808499       21.4106264001        3.5017541975
 Na        19.4013956256       16.7426117391        4.2251868967
 Na         3.4349859711       15.4742268217       19.9420132901
 Na        14.7331872156        5.7263551041       15.2630167261
 Na         2.3758285180       20.0842265432       10.5110242146
 Na        11.6123804465       18.6354653652       17.7818847046
 Na         7.2539368105       16.2381118966       13.8386883614
 Na        13.4469659171        3.4202877627       20.7173972652
 Na         5.2532359461       -0.0164859226       11.5736754195
 Na        20.0498361315       13.7740963571        5.4516348696
 Na        11.7622719846       20.1730563782        1.4585324097
 Na        17.0378080059       14.2075388176       12.6524523254
 Na         2.2140847365        9.8863448047        1.1347755906
 Na         4.4707975588       11.2913805673        9.4086304673
 Na        12.1268727534        3.7081951950       14.2710701567
 Na        12.5832461936        3.9944473127        7.7941406789
 Na        14.3204602314        8.5465485844        4.5079572140
 Na         0.8063238163        6.3386378342       13.7395310195
 Na         2.4920704297       12.7255727541       14.8873531992
 Na         4.2817695530       18.0468748925        5.3390623576
 Na        18.2085274857        5.4517457573       19.0377272002
 Na        11.4195609005       15.8255597625        0.4846196834
 Na         1.5149287145       16.3314324152        7.4703056802
 Na         8.0168436882       20.7922411302        2.2551947163
 Na        15.4563988456        2.1190621548        3.6432815127
 Na        18.7877355051       11.9784914543       13.0632151458
 Na         9.3911328525       15.5380237773       17.5671708212
 Na        16.9062467233       18.2889103721       21.2957935836
 Na        12.7191380870       19.6700089311       14.8135497720
 Na         2.8633416290       17.2956831258       10.4966014109
 Na        14.6075023513       17.0868303207       14.1366330503
 Na        13.4390203141       14.6481778219       11.7998255723
 Na        18.2727746347        8.7090278168       12.1445109217
 Na         5.0291051148        9.8337689118        2.6951968179
 Na        15.2961799383        5.3064302680       12.0477494666
 Na        10.6487887754       10.1107304349        3.6418159668
 Na         7.0104259886        8.4872887075       16.1027679462
 Na         5.5618980556       19.2133033601        0.5261860976
 Na         7.5955723660       13.2484586251        0.2662550949
 Na        16.2313226407        8.0047305429        8.7952502282
 Na        11.7835061567       16.3771397787        3.9339322498
 Na        16.5477584950       18.9266034097        8.6857635069
 Na         5.1570798832       14.3472146421        2.9054113141
 Na        16.8867272774        2.0839092689        6.6773956802
 Na         9.1036714744       18.0076619450       15.6493246433
 Na         6.4574485982       17.4469889425        3.1421157284
 Na         4.5997104914        6.6768558327        2.2109684112
 Na        18.0742332050        5.1813228111        6.2025281216
 Na        17.8278695666       11.6705449266        6.4475575185
 Na        17.7583030642        7.9968910941        3.9018300235
 Na         2.4904649070        3.8846135381        8.6675770474
 Na        13.1810292817       13.9534131775       17.8488068325
 Na        10.1093686985        8.6934758674       17.9790230586
 Na         3.0344479174        4.1744886229        3.6547248000
 Na         1.4792636664        7.6915427598        6.4582404938
 Na        18.6698648291       14.2181248550        8.6221878305
 Na         1.5343341606       13.6458688367        1.9665888060
 Na         7.8302639648       11.0601665109        2.9161020682
 Na        20.0409043133       10.0988373375        4.1063906160
 Na         0.4776732702       15.4093241022       11.7031689055
 Na        11.7849226992       19.1850813999        9.0617312771
 Na        16.4441007885        8.5566685250       17.4963602943
 Na         1.2592960281        4.0837592084       11.5675420516
 Na        16.6222390810       14.6562964933        5.5036981652
 Na         9.2623068166        4.4236878875        4.5947772534
 Na        -0.7269191617       13.4113894811       19.2453935958
 Na         5.8154651506        3.2735618890       12.3798690113
 Na        10.1859844730        9.7820669105        9.9680733191
 Na        10.4868840146       20.2793156413        4.6748108734
 Na        19.8356728517       19.7323092122        6.7821027044
 Na        16.0487094007       15.9590025167        9.4789044943
 Na        16.1498374105        2.7609152473        9.5465894978
 Na         3.7680135716        5.6663773011        5.9765683335
 Na        16.3604240939       16.0585465736       17.9543475317
 Na        11.1302571490       11.9805899277       19.8530212955
 Na         5.2361415201        1.5429834041       16.0955737555
 Na        12.0782240204        6.5242472848        5.9328953836
 Na         8.8839551800        2.7528058726       13.0032150808
 Na        11.4293595654       21.4540968434       18.1310655240
 Na         7.2319765385       14.2642446538        7.8209913279
 Na        10.6945326792        5.3876952119       18.9622400503
 Na        12.3772807554        6.3865887350        2.6974183925
 Na         5.9584797893       17.2580003021        8.6453639043
 Na         4.3035667199       14.6483673127       14.4638795398
 Na         1.6175870379       11.6272764096       18.0320421604
 Na        13.1249803328       13.5418203883        3.4573943201
 Na        13.6737633507        1.4500150797        7.1527836298
 Na        10.4964392488        2.5024599402        6.9541065989
 Na        -0.7366208467       19.9980736466       11.2468557562
 Na        17.3683667827        3.4096526588       12.4433705604
 Na        17.8301818765        5.1866612050       15.2263076358
 Na         9.8825188971       10.9727602603       15.2982933295
 Na        -1.2721584774       16.0290800836       15.1373180311
 Na         2.2287041854        0.9254958143       14.2617158550
 Na        12.5474776585       12.7187719459        9.1036109659
 Na        19.6787115847        5.6669002648        2.8000518762
 Na        15.0810342835       13.6025207901       15.3241619785
 Na         0.2191058519       16.5172859955       20.2284652069
 Na        15.8525951534       11.2281850279        3.9741121003
 Na         3.7579637759        9.2880247877        5.5967912071
 Na         3.0349315950       12.2204312029        4.0156064794
 Na         2.0630221550        4.4158002441       17.2943224132
 Na        18.6992603128        9.3640415587        8.3635215195
 Na        16.2224392425       10.5475824847       14.7988626059
 Na         5.7896816833        4.3671413626       16.1496320027
 Na        13.5763901473        7.0190530207       18.9872421810
 Na         6.4437084527        9.9187587334       -0.1939688280
 Na         1.1230877251       12.6836099888        9.9507280934
 Na         9.1251846753        7.5442582036        1.1160961662
 Na         1.8324043791        9.4897478524       12.3073522902
 Na         5.6790529024        3.3003369549        8.5012832002
 Na        15.1101968315       19.3565291021       16.9915719887
 Na        13.6766653355       21.1314756089       10.5323962312
 Na         7.3460939204        7.8812829769       11.7806892415
 Na         3.8751427074       10.2869017059       16.4986686772
 Si         0.8109064635        3.2646973047        6.1571933113
 Si         8.1301570595        4.3663427279        1.0800824384
 Si         4.7248999799       12.4636989014        0.6113782507
 Si        17.9157659735       16.8828704603        6.8606781270
 Si        17.3311852640        2.6163705920       19.8399377336
 Si         1.9834597626        7.7118489415        3.3478670251
 Si        18.3835315056       12.5435785339        3.2851536944
 Si         3.4420201448        1.7985692173        5.7707894518
 Si         6.0987908895        3.9480490035        3.3433054574
 Si         9.6267909589        1.8405401053       15.9425201664
 Si        17.8542166758        2.5974908415       16.9230971069
 Si         9.9019841754       18.2526430620        2.5495007145
 Si        16.5434736499       18.9326376819        5.0227266710
 Si        14.4232275643       13.0989450219       20.2868005342
 Si        19.1542403181       17.5328956943        9.5437273278
 Si        10.7538212554        3.4363271178        2.0559518639
 Si         8.6155820926       18.4893277938       19.1421003783
 Si        12.1240314467        6.4969377461       16.3217866976
 Si        17.7226025654        5.3188258436        9.5136204072
 Si        11.6950942513        9.0478020081        1.1359892629
 Si        14.8537032284        5.3208530449        4.6008028178
 Si         3.0802764248       17.3034570540       13.5173908060
 Si        18.0902512256       13.0156986157       16.1100003859
 Si         2.5805414965       20.6889974054       19.6198226127
 Si        14.0122507608       17.5364149514       19.7773343444
 Si        14.5963598078       20.3358738025       19.8047702156
 Si        13.6530547185       16.5458324032       16.9745262814
 Si        18.1441778389       18.8066356354       17.3065896306
 Si         4.5408776868       20.6252210698        2.9167358312
 Si         0.7984354144        7.0173157572       10.0819493258
 Si         8.4009433369       15.9927469721        1.3206259517
 Si         3.7066127754       18.3383996208       17.9300993298
 Si        18.1329881928       10.6289279396       20.2682173794
 Si         7.6675898050        2.0011394507       18.4003130126
 Si        19.4651084794        7.4498795347       16.9232432034
 Si        16.9763191345       14.9273835768        1.7435147192
 Si         2.7085354349        9.0699126550        8.8446921077
 Si        16.0003478380       11.8151156858       18.1150785360
 Si        19.0551690272        2.5114748576        8.9158854146
 Si         0.2549798743       10.2061836658       15.4235202867
 Si        15.7365606599       20.0356913373       12.7365263805
 Si        15.2703492388        5.0374556161        7.5522098980
 Si         3.3679227944        4.0134968103       14.4220540783
 Si        15.4836423976        2.8385767336       14.8928417156
 Si        -0.1712747279       19.4811146630       20.1161481236
 Si         1.2499492715       14.6561336540       17.2271848241
 Si         1.6740566395        6.8753513757       19.4495803127
 Si         7.2770893417        6.4251210121       18.3261730776
 Si         4.4256651739        0.8091882587        8.4060534591
 Si        16.0358541052        5.3159764227        1.7439334467
 Si        12.4900945645        3.4876440173        4.6258780388
 Si         2.7492464415       15.9334718509        3.9228603126
 Si         0.3898115799        2.9884050416       14.4800144813
 Si         4.6949132023        7.4721574515       18.7180381295
 Si        17.2125249278       17.3356001549       12.0812126060
 Si         5.4389870723       17.7728141110       15.5078091062
 Si         1.5239457635       11.2652198762        7.2646241965
 Si        15.0700994194       16.4122547723        3.3621432647
 Si         7.5525913415       19.7560797254       13.9237821204
 Si         2.0871970965        4.1183888569        1.0609061781
 Si         1.2681031124       17.4712339693       16.2855515482
 Si        16.5326592465        8.1105826163        1.2528735252
 Se         4.1784543755        8.2961706603       13.6281381281
 Se         6.5526280784        6.1452684709        7.0294890416
 Se         5.6367273217        5.6323459780       10.4100477638
 Se         8.2769885878        5.8268278137       13.1871946019
 Se         8.1844413156        2.9455819195       10.0064527765
 Se        11.3102176881        1.3079025170       12.4618845754
 Se         3.0377714985       12.1993531817       11.9914443267
 Se         6.1545615772       12.8265629765        5.1178439669
 Se         7.2498703645        9.9662453248        8.8538043468
 Se         7.6051435833       10.5927362731       13.2027046699
 Se         9.5618074808        7.1847560852        3.9935653116
 Se        10.3602607570        7.0624939746        8.4763457294
 Se        11.0473405582        9.0644062096       13.0445325938
 Se         8.3573235330       11.2388395285       17.4695053272
 Se        12.4501106491        5.1310250660       11.1664155655
 Se        15.7056776897        7.9610635099       13.6353547372
 Se         6.9919871143       16.5449131031        5.9192577764
 Se         3.8034497578       15.2598072812        8.8107089791
 Se         7.0236173881       14.3929998092       11.2052315262
 Se        10.1929637543       13.4787611197        3.7048741333
 Se         9.8136918926       13.6086810235        8.1551852077
 Se        10.7553565196       12.5407148432       11.4781618430
 Se         8.8759136295       14.2863880420       15.1452226745
 Se        16.7101808819        9.3173753577        6.2683460943
 Se        13.0191022854       11.6009104838        5.7380703034
 Se        14.9525156916       12.2310093850       12.6198665539
 Se        12.4301425412       12.1313564593       15.7823313156
 Se        13.5180635103        9.5497375302        9.6038951457
 Se         8.7639800684       17.7316301531        9.6753072541
 Se        11.4840771171       16.6892264323       13.0744248220
 Se        11.5791281300       17.7655658211        6.4056145868
 Se        12.8786569893       15.7633614247        9.5387426742
 Se        15.7843756321       12.9209774791        8.3940388377
 Cd         5.4400133786        7.8114925664        8.7102664202
 Cd         8.4199060204        5.2796644043        8.6901809926
 Cd         3.4205156107        6.4860417075       11.6510592196
 Cd         3.3019326592        7.2091182310       15.7546770906
 Cd        10.8236354748        2.8208442266       10.3252953628
 Cd         8.1037183644        0.6328950945        8.5156837878
 Cd         3.9026178618       13.6885561733        6.5487147809
 Cd         6.9651238133       10.4416518868        6.0641986479
 Cd         4.9679347508       10.7576167580       13.3462357728
 Cd         6.8955607297       12.4622293569       15.5897110259
 Cd         6.8757629139        7.1665190060        4.5133394589
 Cd         9.3740290037        8.4347659006        6.4094064825
 Cd        10.7874151964        6.2403097888       12.8002053599
 Cd         9.2015809400        5.5304002310       15.5553349596
 Cd        12.8428120396        7.0199626156        9.4802450279
 Cd        13.2276047568        8.2534665211       14.0430055854
 Cd         8.0848302776       14.6740711525        4.3680513632
 Cd         4.3984182555       14.2098616837       11.1976870623
 Cd         9.9021134756       14.6875558570       12.5910597320
 Cd         6.6990189919       21.3503075136        5.7571497643
 Cd        10.2022531084       12.1871321471        5.9821700589
 Cd         7.8745454791       11.8963343177       10.9197978892
 Cd        11.4582126284       14.9133957146       15.2246793684
 Cd        14.3258207836        9.9107820278        1.5259224755
 Cd        14.9294647392       10.5956313417        7.4546840997
 Cd        12.4235722486       11.4360111999       13.0639970968
 Cd        13.1937547368       10.0242643980       17.2187787713
 Cd        15.3271818829        9.6382539052       11.5008608682
 Cd         8.8808138922       18.3132640855        5.8366592110
 Cd         9.8733366101       18.5235860328       11.9714654762
 Cd        13.9862709730       17.9779983997       10.8450386575
 Cd        10.3233578308       16.0763879842        8.2169745085
 Cd        17.1398173922       11.8316566076       10.4294162083
