438
 i =     7800, time =    15600.000, E =    -10932.3703469454
  O         4.0268311248       16.2602590919        3.1798516202
  O         3.3224184076        8.8386979514       10.3082868021
  O        14.2653231253        1.0044778069        1.9463569745
  O        11.9281583704       15.7036527785       17.0741270543
  O         1.8039942050        7.2129537169        1.4862472325
  O        15.8844583276       16.3756521969       11.7757654077
  O         4.1279953162       11.4410307059       18.6943868130
  O        17.3750202229       15.4250867315       19.8682385107
  O        15.3529521936       14.0836483159       20.9044680060
  O         1.6039941979       15.5233428578        2.6057844904
  O        10.9822404354        7.3721436284        0.5866369400
  O        18.0178675859       13.7136084272        2.1368501020
  O        10.4490397642        6.6460214506       16.7850188851
  O         1.3991429491       14.5777733520       18.6927402610
  O        17.9322201658        3.0476636543       18.4940647165
  O        11.9320183659        2.0346313207        8.6221583702
  O        13.5609313579        1.3070300128       18.6564871364
  O        17.0203258716        6.3313133760        1.2932960096
  O        10.5868026847        0.8209116242       16.1058057747
  O        15.3402184225       19.5010027000        6.0887314597
  O         4.6087822253        8.1765712105       20.2443915969
  O         3.2987722658       18.7017361012       12.6170706358
  O         1.1331146771        7.9388766782        9.1377793662
  O        16.3671648223       16.5376365943        7.5007790242
  O        17.2266504338        3.7192050385        1.5103737106
  O         7.3859899004        6.0815607850       16.9837334218
  O        15.9962816269        1.7820367878       19.5270168817
  O        -0.3231105427       18.0922462699        1.8885967181
  O        -0.1644861462        4.4088327181       13.7477520811
  O         2.2697698121       17.5021982884       17.2848525641
  O        11.8576621620        3.8022356344        3.1578746295
  O         0.7856810225        2.6961898107        7.8225098566
  O         4.4030560001        2.6709267879       14.3656744394
  O        16.5350016052        4.6687991249       10.6172368664
  O         5.5568307059        5.3025082663        4.0641831096
  O        11.5935901101        4.1420453548        5.7610519942
  O         4.4005128764       18.9189317328        9.3284117094
  O        14.3807851707       15.3292923481       15.8348213363
  O        17.0378599266       11.1682158116       19.3565199943
  O        14.8196577971        4.7519965583       20.2161843348
  O        18.7997112741        3.2302464923        5.4946275070
  O         3.4356381323        8.5213871225        7.7746531647
  O         4.3645187201       17.3155190700       18.9895941621
  O        12.8511052367        7.7519847839       16.5200296288
  O         1.8828686966        3.1928743469       15.0045137073
  O        16.0661452446        5.1704351412        3.3625582845
  O        14.4760526275       11.6938626645        1.8865746000
  O         9.5338560484       18.9296102501       20.3788233870
  O         5.9002699771       19.6807111986        2.8117403862
  O        17.0271511401       18.7730794373       12.7065353402
  O         4.9042389167       12.3120227573       14.9881690137
  O         0.6437794695       15.7993554816       16.2091068315
  O        11.3806427065       18.3069787068        2.9461509650
  O        17.9696704166       11.1329908970        2.4371767836
  O         9.6522148696       16.5121088624        2.0779373736
  O        -0.1228433667        1.6503663492       13.9096722191
  O         7.4757326705        3.2797753575        4.2848877254
  O         0.8910434604       18.6851873112        9.8344032649
  O        18.3626322590       20.6413693503        1.1328201907
  O         3.2498900632        4.7227916297        1.4116526356
  O        17.7153944682       13.7002682883       14.8147200748
  O         0.0281637690       13.3740672149       16.8720779763
  O        14.9004547460       12.6130293809       18.6797430656
  O         1.0003011595        7.5638891201       11.7769005394
  O         7.9064682528        2.5233301226       19.9310751290
  O         0.3036318664       11.1368018886       19.7650788838
  O         3.8274282871        2.1934549644        9.1812894014
  O         9.5902726364        3.1516645989       15.2007233684
  O         0.5892717059        7.4361372954       18.3921148269
  O        12.7810692427       13.4754597950       20.1026288688
  O         6.0318195239       18.9748813716       14.4750990227
  O         3.6449710735       12.2913615839        1.9471006405
  O        14.1025738059       16.3416566006       18.3757727589
  O         2.3080986457        2.7230008836       19.3172491979
  O        19.5867897869        9.7711179673       13.7805140322
  O         7.1429325687       15.5277311488        2.4460609357
  O         0.1346696049        7.4964928110        3.5723156210
  O        17.7340040219       17.7302822025       10.3602797147
  O         8.7203171675        2.0213924790       17.4711689058
  O        14.0461132811        6.2842773121        7.8173555679
  O         1.8389266476       10.5275650126        8.8074590675
  O         2.2172425826        9.2806580806        3.3831944726
  O         8.4035581705       18.2735849970       13.5194318213
  O         3.5347155801        0.6362159913        6.9028728227
  O        12.3078791674        5.7823900153       14.8299304052
  O        12.2337620564        9.8078800858       19.2881420094
  O        15.5009710393        8.2026463324       19.4188334371
  O        10.1186632042        9.7303838548        1.5708633937
  O         7.0997835518        1.1557893559       12.7015840500
  O         8.6486763043       20.4980616838        6.4162794496
  O         2.8401989958       11.4627724358        6.4807495806
  O         3.1347028821        4.7297809553       13.1816725970
  O         5.7056828742        6.1055383169       18.8517331552
  O         2.0595651002       17.1287142523        4.7793298783
  O        17.8944202439       20.1700793612       17.0735778814
  O         2.5832626148       14.1521272028       16.2049561550
  O        -0.6487043051       18.3859842679       18.8672968596
  O         1.2167071146        4.9437427459        6.4927124446
  O         3.5968778500       20.3230584205        4.2341664337
  O        15.4043646455       17.9890952487        3.8473017189
  O         9.5271301414        4.3326328619        1.8843549660
  O        12.3444854799       17.7428284569       19.5000657700
  O        14.3735035359       16.8010873153        1.7670956008
  O        17.0147418703       12.8575446049       17.1936036461
  O        13.7703434554        6.4360396861        4.4211234043
  O        17.1202892876        9.7038455987       10.3064216937
  O         4.5986027304        8.2038655377       17.4965814513
  O         1.0417526720        5.0822910281       19.5079982802
  O         0.4701895754       12.4007498979        3.7606231559
  O        18.5586903300        6.6088821009       10.1098454735
  O        15.0315869240       18.6694550758       19.3061941953
  O         1.7360567801       10.6545464618       15.8944861411
  O        -0.4232493418        3.2233394201       16.1988674656
  O        14.2486083141       19.1922038739        9.2701267533
  O         6.0814197919       11.6856638724        1.3536531366
  O         8.7624710388       18.6955369106        3.5916930230
  O        15.1526432585        3.7977577832        7.7600822613
  O         3.0833251642        6.5207857968       18.7060965073
  O         0.6598630022        9.8759499930        6.5381045969
  O        12.6042688271        1.7400632855        4.8866253304
  O        18.7455894146       17.7509471947        7.8412688908
  O         9.4281888583       17.7231204935       17.9315697983
  O        17.1389873730       19.9688306258        3.9233908003
  O        18.3340395850        4.2488383619        8.8335300490
  O        18.4136883120       13.0767517413       11.1093018099
  O         3.6900100680        4.7820965776       15.9071668620
  O         4.5172733502       16.8340797128       14.3904461615
  O        15.5568554695       10.5964324878       17.0810121775
  O        16.4302606933       15.7297386555        3.1098912596
  O        15.9865362721        1.2456690237       14.2075802763
  O        15.6380362047        4.1066120823       14.3113685821
  O         5.9533602244        1.1267348217        7.8681473791
  O         1.9747865944       17.5355031303       14.5679263219
  O         7.5585690726       17.2153413309       19.9038885820
  O         7.7218255234        7.7998544637       18.9747615461
  O        13.5316441338       17.8636109642       16.1495950004
  O         2.0066575946        2.3634364947        5.6315461853
  O        16.2542636772        2.6028400265       16.5024779592
  O        14.0203875737        3.7889106318        4.5208417427
  O        -1.0953604766       16.4285781026       12.7552444328
  O        17.9551958794        8.9404674908       20.3223829150
  O         0.4382331008       16.0240844658        9.6410792535
  O         6.0299537437        2.3811578321       17.9738982083
  O         6.5993543039       16.7887352009       16.0235864035
  O        17.1418749090       17.6332612867       16.7306521114
  O         4.7001492462        2.8718005314        5.7222396597
  O        15.8988287083        1.7490605961       11.7100016918
  O         2.4240927599        6.5458053844        4.0761397978
  O        17.7919453724       20.9280050980        8.6702988813
  O         0.1131452206       18.3327628192       16.1133887397
  O        16.0045627649        8.4333654812        2.7402324817
  O         1.7183762881        5.5468135347       10.2304437664
  O         1.2968321185       19.6873550853       20.0627284039
  O         0.4666528256       12.4025092143        7.6413238860
  O         6.8310294356        4.3583950452        1.9562555953
  O         3.1297089460       15.9898929226       12.5113795236
  O         3.6539928563       20.5554121959        1.6084813304
  O        11.3004345970        3.0060740543        0.5776543113
  O         3.1776379568       19.7154118398       18.4137643527
  O        16.6097588212        6.1137822310        8.3767535335
  O         2.6059802812       14.6050255186        4.9696788833
  O        12.4703919723        8.7793623508        2.2886662591
  O        12.7819288255        5.2664367630       17.3546183558
  O         8.8550459486       14.7561153658       19.7192431663
  O         5.9553272535        9.5849313182        4.6912712132
  O         7.3394116016       19.4951299002       18.8313822171
  O         8.1715502113        5.1568895345       -0.1135497628
  O        14.4582228465       19.0260932189       12.7686922863
  O         1.2011358231        3.3258049158        2.3317847821
  O        18.6121943831       15.6244456014        6.2178597024
  O         8.0255428570        1.0433234083       15.1616132034
  O         9.3679253506       10.3479953328        5.8581405269
  O        17.3055934468       12.6323243477        4.5327648032
  O        18.0106003867        6.5968363244       16.9451181196
  O        19.1056011639        8.8368311245       16.3277694294
  O        13.9440061983        2.2335771892       15.6048828274
  O         4.4756252898       18.5278109348       16.5041072399
  O         0.1344064474        2.4303583994       10.4954819492
  O        13.9291556027       15.6634223385        4.2666327445
  O        17.5806283768       17.9218832550        5.4957217416
  O        15.8675441059        5.4393556703        5.8560739816
  O        10.1249189219        1.9008814601       22.1688963298
  O         4.9279998808        2.9340445365        3.0517381141
  O         1.1869292140        6.5635734492       15.9469357587
  O        18.4160955678       11.2009528101       15.5966654294
  O         4.9335098697       13.8523185721        0.1329611811
 Na        13.5474857920       14.6084326241        6.3516527242
 Na        -0.7885189690       18.9090751144       14.3469887462
 Na        14.0445966937        3.3302554984       17.7070446920
 Na        14.3361366824       17.7659813475        7.2061981098
 Na         4.4364233769       13.3132809932       17.3531949571
 Na        13.3306711787       19.2999474508        3.8950570468
 Na         4.9889495572        3.8357591416       19.6175079384
 Na         2.2167774755       18.3773359091        2.6978704299
 Na         6.0709539789       15.9715588079       18.4407928441
 Na        19.1679841096       21.2724017421        3.5165329545
 Na        19.0823204838       16.7621055244        3.7513418408
 Na         3.4266955287       15.4604058644       20.2417098976
 Na        14.6816577881        5.7161562702       15.5535958076
 Na         2.2316931906       20.4213401998       10.5539083810
 Na        11.5434847000       18.2310013579       17.4688041127
 Na         7.1478699227       16.2087003198       13.4068145001
 Na        13.4680796732        3.1663121622       20.6077944063
 Na         5.2568362043        0.0075591878       11.5710447220
 Na        19.7952854592       13.7904128708        5.4549425027
 Na        11.6536581716       19.7840258734        1.2618274884
 Na        17.0509518631       14.5315658393       12.2062260451
 Na         2.5106116169        9.8821170401        0.9830123732
 Na         4.1966493012       11.0667519827        9.6098042973
 Na        11.8979600627        3.5033280498       14.4506634958
 Na        12.7709426138        3.9753050081        7.8463713812
 Na        14.2287370834        8.4748957003        3.9704358101
 Na         1.0121968196        6.3894611668       13.7437496253
 Na         2.4924413249       12.3830071458       14.9242971870
 Na         4.0175207909       18.0456417319        5.5075563658
 Na        18.3717680112        5.4444103839       18.8432737791
 Na        11.4378725746       15.7860246942        0.4695780878
 Na         1.4067541910       16.3139524366        6.6395365278
 Na         8.0136882941       20.7718230749        2.8819444170
 Na        15.5031152830        2.2915753095        3.4353710937
 Na        18.7722644769       11.9675543317       13.0611196544
 Na         9.4066571845       15.4889976651       17.7572801728
 Na        16.7481753006       18.2970830472       21.2616564629
 Na        12.6598575829       19.7807556216       14.8104521292
 Na         2.7409456965       17.3129656734        9.9931431164
 Na        14.6061606501       17.1196442837       14.1445198627
 Na        13.4704024549       14.8958804036       12.1920033676
 Na        18.4527065346        8.7767617463       11.9899059439
 Na         5.0280449829       10.0449803304        2.6207982482
 Na        15.2071989156        5.2133894373       12.3663637924
 Na        10.9925498987        9.8708551608        3.7656058273
 Na         6.7179059684        8.3311514566       16.6009769895
 Na         5.5772629975       18.7806139500        0.7349770272
 Na         7.4264181112       12.9967725630        0.1532704618
 Na        15.7734573607        8.1729866138        8.8283543694
 Na        11.5133965864       16.1592102142        3.8235843500
 Na        16.5472539007       19.0496868191        8.6783613083
 Na         5.3435523092       14.2037717448        2.7486553757
 Na        16.6740443488        2.2668156132        6.5099905567
 Na         8.8171215732       17.5958334535       15.7473708487
 Na         6.4423450821       17.4267826041        3.4596966616
 Na         4.2777797355        6.5254029492        2.4249739880
 Na        18.1147873543        5.3187648730        6.3384582533
 Na        17.9758980440       11.6623768595        6.6544201513
 Na        17.4600199588        7.5528415294        4.1979594257
 Na         2.3193407521        4.1803589649        8.7761134887
 Na        13.1868589864       13.8458445280       17.9922583900
 Na         9.8536423312        8.4244541452       17.8901530157
 Na         3.0198774957        4.1816571964        3.6350828298
 Na         1.3400781935        7.2454089344        6.1083922837
 Na        18.7483230239       14.2332839908        8.7370009418
 Na         1.6252902882       13.2005186584        1.6948968536
 Na         7.9021960375       11.3231203521        3.1906744671
 Na        19.3280933405        9.8939770278        4.1859389922
 Na         0.8031273050       15.3543348332       12.0463027932
 Na        11.8371873452       19.1642944910        8.8854935666
 Na        16.8239045173        8.5416703165       17.3467551673
 Na         1.2261929282        4.0417936248       11.7105531855
 Na        16.7774077591       14.6724707837        5.3349507344
 Na         9.5225428528        4.3793136432        4.8671331473
 Na        -0.9307738227       13.3823713552       19.0654564143
 Na         5.5409107102        3.3059903801       12.5359771170
 Na        10.4117516730        9.7560125181       10.2433056830
 Na        10.6437617991       20.0673853223        4.5812654505
 Na        20.3855880954       19.6878298831        7.5330125248
 Na        15.8521335373       15.4781311403        9.4900747741
 Na        15.7969298177        2.7536380908        9.5580074193
 Na         4.0472007537        5.2733825508        5.7698632544
 Na        16.2443908736       15.9749749151       18.0956254173
 Na        10.9767377574       11.7262223165       19.9988954423
 Na         5.0293671906        1.5656433846       16.1604237844
 Na        12.2807566733        6.2840250876        6.1793957329
 Na         8.8691933912        2.7399463983       13.0033412398
 Na        11.1636169912       21.2831879944       18.0992260873
 Na         6.7182411695       14.3282897654        7.6211644610
 Na        10.7075952572        5.3836981308       18.8857533580
 Na        12.0868971847        6.4169643860        2.8642422398
 Na         5.9913066013       17.1864004730        8.9619020108
 Na         4.0587924495       14.6685786537       14.4750930896
 Na         1.8861996385       11.5904231313       18.0428508242
 Na        13.3758143624       13.5321209248        3.4639495968
 Na        13.5227038009        1.2758783867        7.0699349536
 Na        10.4996162374        2.3321555352        7.0023754035
 Na        -0.8749050455       20.0200093031       11.2158510564
 Na        17.3050908499        3.4055796844       12.4328440323
 Na        17.6173886587        5.1858037390       15.1951601340
 Na         9.8403320772       10.9759302693       14.8528980720
 Na        -1.6173490113       15.7924341290       15.0890053263
 Na         2.3060329708        1.0223385990       14.0093133838
 Na        12.5586479696       12.6078330413        9.3673796742
 Na        19.5094668470        5.2357828209        2.8579002121
 Na        15.2215846388       13.3073562777       15.4126845717
 Na         0.3269809850       16.0209666089       20.0589405005
 Na        15.8300833488       11.1935428255        3.8641204778
 Na         3.7835824278        9.3681600687        5.5894791236
 Na         2.5403088684       11.8448912860        4.1086390709
 Na         1.9925909165        4.4523320602       17.1649623836
 Na        18.5659465779        9.0097453326        8.5335921835
 Na        16.2165732253       10.5708593359       14.9530535970
 Na         5.7872586854        4.3941350838       16.4537483261
 Na        13.7990773644        6.5720662495       18.9969034858
 Na         6.2603812111        9.8794584532       -0.2023278176
 Na         1.1939544508       12.5900640919       10.0044024136
 Na         8.8079194063        7.5473048765        1.4407738896
 Na         2.1474483253        9.4875818258       12.4943359250
 Na         5.3064413212        3.7133991878        8.6013671596
 Na        15.1474273429       19.4371583501       16.8206537795
 Na        13.5786433604       20.7768669429       10.8630747128
 Na         6.9370014929        7.8720056476       12.4286216691
 Na         4.1072764229       10.3139524385       16.4881646092
 Si         0.8360719292        3.4285865367        6.2998487476
 Si         8.1796231800        4.0504340856        1.0684283701
 Si         4.6783530737       12.2487819373        0.6984913866
 Si        17.7403949754       16.8728548020        6.7454984221
 Si        17.3930285097        2.3845600897       19.8740186870
 Si         1.6727828844        7.7038588944        3.1600405720
 Si        18.3527346160       12.5098985105        3.2888503550
 Si         3.5156066534        1.7564082669        5.6848609671
 Si         6.2439053359        4.0153517248        3.5061831427
 Si         9.3129223699        1.7189427889       15.8789926141
 Si        17.7937418589        2.4008490589       16.9912245081
 Si         9.8422347315       18.2233188702        2.4743783762
 Si        16.3735752964       19.0163618949        4.9291226868
 Si        14.3027657834       12.9400792770       20.2637277260
 Si        19.2343173163       17.5281588198        9.4417877712
 Si        10.7800384874        3.1631372597        2.0732064611
 Si         8.5882347381       18.3134626253       19.1654987796
 Si        12.0346728995        6.3337929794       16.3982036990
 Si        17.5236669922        5.3854832726        9.6084416814
 Si        11.3795367667        8.8125529571        1.0871551214
 Si        14.8940528312        5.2855530728        4.5518957517
 Si         3.2296476864       17.2981716270       13.4324051725
 Si        18.2020291157       12.8056990771       16.0176543110
 Si         2.5955476617       20.5459157175       19.7290072429
 Si        13.9175461262       17.4848870514       19.6541833931
 Si        14.5942062721       20.2162835030       19.7782529494
 Si        13.4490666483       16.4141135676       16.7220583942
 Si        18.2832311987       18.5520896876       17.2656606573
 Si         4.6699923902       20.7132005910        2.9615452176
 Si         0.8395344277        6.8458140151       10.3551011339
 Si         8.2564429688       15.9228447605        1.4071498892
 Si         3.6077549481       18.1849945665       17.8641133097
 Si        18.2645581906       10.5296378195       20.2910272672
 Si         7.4735013523        1.7760901744       18.4371860293
 Si        19.4286153406        7.3058664316       16.8159627034
 Si        16.8026557002       14.7170810781        1.7952015539
 Si         2.4492221111        8.9590980308        8.9696455026
 Si        16.1482556174       11.6887700769       18.0810851229
 Si        18.9077341980        2.6785546253        8.9848925439
 Si         0.3474380259       10.0741850205       15.3868382094
 Si        15.7349468906       19.9623488178       12.7513865467
 Si        15.3088255117        5.3552608215        7.5636396981
 Si         3.3781754356        3.9175578958       14.5131183798
 Si        15.4003499915        2.5811373797       15.0035955520
 Si        -0.2065838191       19.2092077602       20.1907740093
 Si         1.3110615986       14.4903213069       17.0995062487
 Si         1.6744948898        6.6911970964       19.4160077834
 Si         7.2747678455        6.4027413822       18.5274997018
 Si         4.4253010400        0.8673055352        8.4448563216
 Si        16.1469347152        5.0231567894        1.7321548411
 Si        12.4027267303        3.3267919182        4.7059869863
 Si         2.6330156375       15.8316350174        3.8904091514
 Si         0.2805824417        3.0433024154       14.5858372468
 Si         4.5560805164        7.3418447179       18.8726801096
 Si        17.2800381575       17.2841699766       11.8970815430
 Si         5.5168294569       17.7499395761       15.4725395703
 Si         1.4265809558       11.1712107225        7.2077101966
 Si        14.9113474013       16.5424795299        3.3007379748
 Si         7.4124311509       19.5531448457       13.8485530923
 Si         1.9470479045        3.9581450419        1.0451241214
 Si         1.3246188635       17.2494619856       16.0576195245
 Si        16.5778837906        8.0392688258        1.2605740200
 Se         4.3511997620        8.2737842259       13.7263656749
 Se         6.4149003238        6.1527978407        7.1408443426
 Se         5.7370137768        5.7178221617       10.8323782164
 Se         8.4713069806        5.7006329430       13.2021197172
 Se         8.3468429872        2.9223348645        9.7841138588
 Se        11.3052421930        1.3499181101       12.5543834692
 Se         3.0937014995       12.4890580706       11.9199175717
 Se         6.1802746683       12.9681883854        5.0786907049
 Se         7.1065919437       10.2895933423        9.0266283101
 Se         7.5581484431       10.6890100534       12.9234133161
 Se         9.5447801466        7.2010836991        4.4406031374
 Se        10.3956816219        6.9514287765        8.8108093435
 Se        11.1794917403        8.8477004198       13.1833435363
 Se         8.2247223356       10.9434080084       17.3099428172
 Se        12.7040070921        4.8500366994       11.4171571850
 Se        15.7761259868        8.0381080744       13.6070112371
 Se         6.6257568434       16.7130640919        6.1333913383
 Se         3.6912199035       14.8638392676        8.6207960721
 Se         7.0070604986       14.8270565120       11.0194803401
 Se        10.0438531329       13.4798639318        3.6569790954
 Se         9.5536321907       13.4771676446        8.2078418929
 Se        10.7173777830       12.3505886801       11.6655235798
 Se         8.7535457416       14.4170844221       14.9642272763
 Se        16.5173825672        9.1422167558        6.1690057527
 Se        13.0489385277       11.5618271673        5.3768308516
 Se        14.9790633282       12.3487066072       12.5332569385
 Se        12.4717144035       11.9876479922       15.6399880801
 Se        13.2560507931        9.6179149023        9.6605304664
 Se         8.7609837010       17.7218948058        9.8068902586
 Se        11.6937998312       16.7052380579       13.2851107268
 Se        11.3074784594       17.5119061135        6.4387011955
 Se        13.0200503699       15.6021516834        9.4832474410
 Se        15.4899351389       12.9248139612        8.0482541574
 Cd         5.3578871721        7.8634372736        8.9590944948
 Cd         8.1113129394        5.5817381798        9.0964586473
 Cd         3.4834432187        6.8133634763       11.6877381586
 Cd         3.3060156009        7.1427693289       15.7504576968
 Cd        10.8821863760        2.8113271367       10.3157266459
 Cd         8.0425225899        0.6063229718        8.6246128723
 Cd         3.8603338157       13.4022764271        6.5209124206
 Cd         7.1992238941       10.7091322941        6.2127288767
 Cd         4.9881202054       11.0511313836       13.1402233587
 Cd         7.0345106307       12.2311353572       15.3968758175
 Cd         6.8624120748        7.5104517376        4.8567953612
 Cd         9.7830421103        8.5038911171        6.7909573462
 Cd        11.0459764874        6.1855800022       12.7417834338
 Cd         9.0152286477        5.3030586403       15.6988614406
 Cd        12.9087743270        6.9136576301        9.8388980088
 Cd        13.2272590423        7.9399963423       14.2947118149
 Cd         8.1696887372       14.8837231540        4.6265054881
 Cd         4.3822494149       14.6710586178       11.0694501925
 Cd         9.7195296181       14.6127418697       12.3293249831
 Cd         6.7885249312       21.5058066681        6.0816826763
 Cd        10.4469849190       12.2059221129        5.9999935279
 Cd         7.8784284966       12.3528435496       10.5904819458
 Cd        11.4391718461       14.7447471563       15.0177209922
 Cd        14.1501473839        9.6451249923        1.1667127389
 Cd        14.4953181883       10.5067540541        7.2946705871
 Cd        12.6938642168       11.2943361450       13.0985042867
 Cd        12.9377856101        9.8223548206       17.1614964349
 Cd        15.2397994649        9.7996905793       11.5414096022
 Cd         8.7115139667       18.1936070164        6.1357899668
 Cd         9.9168953325       18.5479031023       12.0317637011
 Cd        14.0752336869       17.7077220261       10.7745629348
 Cd        10.5039394036       15.8881397978        8.3854217754
 Cd        17.0831661550       11.9351373447        9.9905251473
