438
 i =     8800, time =    17600.000, E =    -10932.3861371626
  O         4.0633495543       16.3873731089        3.2612880987
  O         3.4510914483        8.8038056706       10.4721974656
  O        13.9141269087        1.2187240260        2.0036252438
  O        11.8181163734       15.8072224969       17.0950621015
  O         1.5964057622        7.2566947055        1.6138517960
  O        15.7979906216       16.4730752378       11.9267092987
  O         3.5653770637       11.4090816109       18.6131317936
  O        17.5402388907       15.7121935803       20.0082728610
  O        15.4356389162       14.0951416950       20.5788609629
  O         1.5605282938       15.9458717349        2.5578448795
  O        11.2052425964        7.1555676085        0.4114070900
  O        17.8198294254       13.6674145628        2.2612238347
  O        10.6481027811        6.7125665763       16.7812700220
  O         1.1715462613       15.0190289049       18.5953980021
  O        17.8546339400        3.1498345088       18.3528221056
  O        12.0782903230        1.9674863010        8.6894659772
  O        13.2736181394        1.2333728025       18.7269296324
  O        16.9297820927        6.3261308507        1.4074049547
  O        10.7718735533        0.7004989330       15.9532565368
  O        15.5959656470       19.6574854747        6.0878548285
  O         5.1298756823        8.1619844756       20.1247761433
  O         3.4506447979       18.9380359910       12.5480229681
  O         1.2313154609        7.9618149371        9.2400342859
  O        16.2257135823       16.7244626861        7.3995069712
  O        17.1547920718        3.7096275225        1.2937870372
  O         7.5750422956        5.7284564296       16.8224760829
  O        15.7459340904        1.8177396145       19.3958405272
  O        -0.2340309556       18.4348714159        1.9680787299
  O        -0.1673783708        4.2567233616       13.8409892095
  O         1.9507101290       18.0372954978       17.4524926041
  O        11.7418526187        3.8377887826        3.1897135018
  O         0.7853882904        2.5731472418        7.6775640341
  O         4.4573698439        2.8151303039       14.6565122616
  O        16.7354363281        4.6196190844       10.6985698668
  O         5.4288292412        5.1811213096        3.8308044125
  O        11.4267856552        4.0821272052        5.8293461881
  O         4.1148567289       18.6892542821        9.2229494629
  O        14.2271576750       15.3888246672       15.9158225157
  O        16.9308180706       11.0102069585       19.1232033036
  O        14.7119757964        4.7234211978       20.1571222494
  O        18.9228394857        3.5354980700        5.2312088365
  O         3.2886553194        8.2778588589        7.6904245992
  O         4.0648789796       17.4441372536       19.0536049544
  O        13.1684902131        7.8039823032       16.4329920817
  O         1.9536536722        3.2973792881       15.3122395800
  O        15.9151186291        4.8554647572        3.2911067623
  O        14.4674600362       11.7735882493        2.0337170873
  O         9.2803755824       18.8653607249       20.4119969488
  O         5.8158099156       19.6535480836        2.9801291147
  O        17.0792452764       18.8216737532       12.6498894566
  O         4.9734168188       12.5344800430       15.2549563553
  O         0.6583269042       16.2837745238       16.2603965657
  O        11.1472186915       18.2722743946        3.0692799041
  O        17.4952019188       11.0218641120        2.4261223379
  O         9.5499900155       16.3292662370        1.9094514490
  O         0.6863689121        1.7890018809       13.4784381456
  O         7.1578884531        3.0560936720        4.2568233592
  O         0.7126954165       18.7522152573        9.8465547291
  O        18.1490430232       20.6504219788        0.9851879715
  O         3.2908957330        4.9740078461        1.4126169521
  O        17.5637320070       13.5864225324       14.7075147502
  O        -0.1506597193       13.7254289128       16.6947630577
  O        14.6754582545       12.4560259966       18.7005075133
  O         0.9115642797        7.4447753000       11.8583003199
  O         8.0374569770        2.5796747009       19.8177752710
  O         0.0724578319       11.0157081250       19.9564780489
  O         3.7948314553        2.0574819545        9.3876378519
  O        10.1280175722        3.1711754838       15.6002393355
  O         0.7697795334        7.5711386898       18.3828138637
  O        12.7940303349       13.3343661147       20.0549980200
  O         6.2550643715       19.0157768068       14.8449907140
  O         3.3286709430       12.0162070825        1.8075640045
  O        14.2527773362       16.4206660152       18.3649813748
  O         2.6828266758        2.8614483133       19.4830580716
  O        19.0478595333        9.9690086474       13.7764515450
  O         7.2318878995       15.1472464222        2.2827769759
  O         0.2981431804        7.6713459031        3.9474205395
  O        17.7799388701       17.6226233592       10.3943612172
  O         8.8584982644        1.7494668024       17.4399194845
  O        13.8539249344        6.0123309981        7.6590379474
  O         2.4132012262       10.5485417269        8.8005781999
  O         2.4781414818        9.1242322246        3.4312796508
  O         8.3546487586       18.2135130749       13.4528803467
  O         3.3004966029        0.6834175309        7.0655403980
  O        12.3363041492        5.8049676062       14.7170655831
  O        12.2212260788        9.5440803126       19.1306540512
  O        15.3420027769        8.0311167364       19.3115767664
  O        10.1284788881        9.4572500181        1.3285657819
  O         6.9757998660        1.1337678258       12.6471859320
  O         8.5741011863       20.4298540010        6.3540952064
  O         2.7172809695       11.5142832680        6.2149282577
  O         3.1090941548        4.7792463005       13.3552332079
  O         5.7174740252        6.0897130600       18.6728139007
  O         2.0511457562       16.9539024515        4.9755322266
  O        17.3310542951       20.2434117090       16.9975284113
  O         2.5219716518       14.3590977623       16.2910352481
  O        -0.8140391283       18.5825132418       18.6419459217
  O         1.7867073160        4.6909913868        6.3659618804
  O         3.7149237570       20.1783047760        4.4259944125
  O        15.0394749747       17.8628796047        4.2470546728
  O         9.2558258196        4.4226283912        2.0917116361
  O        12.3001106843       17.6950330391       19.6006064487
  O        14.2103222213       16.7000731468        1.8342646830
  O        16.7551602080       12.9130861126       17.1517527976
  O        13.7187074253        6.4071805195        4.1971151646
  O        17.3258029728        9.7258134407       10.2258912549
  O         4.9227372986        8.2593912139       17.4090902037
  O         1.0646689162        5.1350426484       19.3127306448
  O         0.3117242162       12.1153526041        3.5817579807
  O        18.4870064992        6.6665866337        9.7730179379
  O        14.8393156191       18.6328867526       19.7241033151
  O         1.6980322969       10.4184232248       15.5895571756
  O        -0.3413329235        2.6876328801       16.0292773804
  O        14.1048775555       19.0069320525        9.2121277481
  O         5.7434573298       11.2877431292        1.0502601923
  O         8.5200796211       18.2122449759        3.5242096637
  O        15.2917169483        3.5799840368        7.7177272207
  O         3.1863795086        6.8473428079       18.8203342654
  O         0.9119338068        9.6941710172        6.8169054955
  O        12.3503397802        1.6599791949        5.0367500828
  O        18.5948942079       17.9551894609        7.8006984914
  O         9.2553572456       17.7195761745       17.9726252642
  O        16.6502056487       19.9888808441        3.6901939444
  O        18.4023638600        4.3298044210        8.5368960885
  O        18.6653957264       13.2516600903       11.1463438272
  O         3.7538566224        5.0050527685       16.1134052168
  O         4.5233415295       17.0683313819       14.2342375190
  O        15.5058768494       10.5139967446       16.8917844650
  O        16.3387592116       15.8256612617        3.0196802085
  O        16.1571793947        1.5199398295       14.1225019863
  O        15.5022594095        4.1235168179       13.9659047901
  O         5.8501304195        0.8938037367        7.8603942953
  O         2.1512544919       18.1315283829       14.7455545237
  O         7.4529929476       17.0424054542       19.9670870340
  O         7.7968100137        7.7897729232       18.5590620777
  O        13.3548263054       17.8909420098       16.1125620170
  O         1.7685760864        2.1571230606        5.4125196599
  O        16.3542950853        3.1831667643       16.2688844089
  O        13.8513553735        3.8606003519        4.6373440666
  O        -0.9907567437       16.6306723706       12.8606966435
  O        17.7135650380        8.8303387115       20.3341241529
  O         0.3445778406       16.0300937438        9.4317798515
  O         6.2458223586        2.4136638828       17.8792135865
  O         6.2720736036       16.4437439310       16.0384796413
  O        16.8133496733       17.7459386430       16.6153074221
  O         4.3780308630        2.8953274754        6.1370877945
  O        15.8585724083        1.6520451677       11.5607441774
  O         2.7556500178        6.6137932198        4.0386070744
  O        17.7232795928       21.1202701360        8.5750195823
  O        -0.0803240883       18.8124107887       16.0777890792
  O        15.6392753957        8.4535752239        2.4826786932
  O         1.5525330894        5.4260887580       10.2858864139
  O         1.2780699085       19.9513726707       19.7801506819
  O         0.6540928078       12.2455595252        7.7227940642
  O         6.6016510961        4.1863406017        1.8053441711
  O         2.5568705874       16.3654557603       12.6310156260
  O         3.4330023680       20.2261277564        1.7487317226
  O        11.2153546466        3.4227826617        0.5716514098
  O         3.5366711634       19.9372550875       18.4223937527
  O        16.4406726584        6.0097162921        8.3355983793
  O         2.6623150042       14.3296984329        4.6246099628
  O        12.4959299839        8.6739343505        2.2782407384
  O        12.9537674123        5.3114837917       17.3066789557
  O         8.5608767285       14.6476853208       19.3409757441
  O         5.9692064550        9.0816183919        4.5186284718
  O         7.3462858299       19.5303296930       18.9159393194
  O         8.1933750733        5.3748592022       -0.0767240019
  O        14.4695680498       19.1326863367       12.9101847938
  O         1.0655309768        3.5364462026        2.2043165175
  O        18.5222122264       15.6385966036        6.4852391622
  O         8.2685835579        1.1921661387       14.8860503769
  O         8.9228975570       10.4162117065        5.4625660152
  O        17.2395950905       12.4821636611        4.5695126082
  O        18.1003404193        6.5335268944       16.9484685475
  O        18.9778591355        8.8710729276       16.2511483243
  O        14.0106695744        2.2256514564       15.5145957953
  O         4.4891896939       18.5279040946       16.5212388732
  O         0.1898238199        2.5989735046       10.3318414515
  O        13.9863841053       15.4093787477        4.3170589619
  O        17.5649494839       17.9527074533        5.4860566591
  O        15.7343477834        5.3803374556        5.8604102624
  O        10.0842978772        1.8358691394       21.9311364566
  O         4.6948147084        2.7988563639        3.0347574008
  O         1.3468248281        6.7627186972       15.9416458107
  O        18.5559680797       11.3439824276       16.0172139713
  O         4.7142793448       13.7422429083        0.2198505544
 Na        13.3987029552       14.3550685651        6.3334431476
 Na         0.0435362309       19.0699133639       13.6032967010
 Na        14.2597746201        3.2293449019       17.6993193781
 Na        14.1486504487       17.6488283786        6.6822110212
 Na         4.2311071991       13.2590796774       17.4462019409
 Na        13.0857057073       19.1964496041        3.8030033999
 Na         4.9183720106        3.7987600157       19.4752613795
 Na         2.2146763773       18.3238499777        2.9272269127
 Na         5.9045269868       15.9808655873       18.3126141348
 Na        19.0141689258       21.4097159783        3.4327613690
 Na        19.2596488650       17.0315927447        4.1431268158
 Na         3.0942512014       15.8159674251       20.0643132029
 Na        14.8622792634        6.0460213542       15.8785160709
 Na         2.1368407959       20.2484017071       10.8809651637
 Na        11.3071364474       18.5144491644       17.5576333464
 Na         7.3781272683       16.1561633850       13.9847026606
 Na        13.2306040304        3.3969707918       20.6798782151
 Na         5.2847682953        0.1270626102       11.2989624958
 Na        20.1518194408       13.3563102710        5.4548983390
 Na        11.5442288922       19.8056547233        1.3520712945
 Na        17.1248519952       14.4115110319       12.4504895195
 Na         2.0924964513        9.9312929209        1.3027803141
 Na         4.5880754616       10.9017400138       10.2525650965
 Na        12.2280700296        3.5398547095       14.6194208444
 Na        12.7382833867        4.1476043974        7.8828954588
 Na        14.3185930099        8.5183199198        4.1555126135
 Na         1.0400457688        6.2805051354       13.8464530679
 Na         2.1451842535       12.6749575540       15.0407406594
 Na         4.0974051642       17.9583340475        5.3975899735
 Na        18.3184920478        5.4682987960       19.0283741420
 Na        11.3433220155       15.6580964929        0.3889614577
 Na         1.4011374452       16.2138971897        7.0832727893
 Na         7.9285289451       20.4461717956        2.5695724476
 Na        15.1414438325        2.2175497833        3.5708761542
 Na        18.7656390684       12.0027392185       13.0468361815
 Na         8.8706851803       15.5851158049       17.2912809775
 Na        16.6396897785       18.3833234384       21.1905879989
 Na        12.7262851295       19.7324177604       14.6657617899
 Na         2.6323136701       17.4838444421       10.3478241289
 Na        14.5977376199       17.0819014636       14.1534668100
 Na        13.4890314721       14.5820265918       11.8630729293
 Na        18.4038358624        8.6846367695       11.9827655423
 Na         4.6465185643        9.9474397862        2.6274273540
 Na        14.9928318557        5.1495492812       12.0341754108
 Na        10.5721648295        9.7613617632        3.7160323438
 Na         6.9506930219        7.9484469846       15.9476217669
 Na         5.5732860388       18.8716909524        0.7141055339
 Na         7.1678905963       12.9736241938        0.2466323090
 Na        15.8241358344        8.0775917898        8.8746704517
 Na        11.2497310276       16.1226960188        4.0217410038
 Na        16.5739695731       19.1102949866        8.6906677129
 Na         5.1012336544       14.2691941292        2.5346479580
 Na        16.8996177218        2.2253257442        6.3462554826
 Na         9.9667086814       18.0522331723       15.2175947672
 Na         6.4231988456       17.1149346472        3.1802970210
 Na         4.5206756885        6.5194462740        2.1759505285
 Na        18.0826964626        5.8638240219        6.2655562595
 Na        18.1237267488       11.3793262700        6.5694384529
 Na        17.6390689937        8.5555564076        3.5662810213
 Na         2.5562821273        3.9450189123        8.9425883590
 Na        12.8810141015       13.7494944941       17.8173526175
 Na        10.0002123529        8.3922377734       17.9841349482
 Na         2.9030597109        4.3565811694        3.6610297854
 Na         1.4640633872        7.2909700279        6.4465035497
 Na        18.8450819052       14.2220286925        8.7988196862
 Na         1.4260637294       13.3832431951        2.0171936138
 Na         7.6043753506       10.5179976246        3.3138347087
 Na        20.1207825260       10.0171908678        4.5804112303
 Na         0.5281551144       15.2942956481       11.6873535979
 Na        11.7707369612       19.1533643843        8.7057320821
 Na        16.7323469473        8.8140409008       17.5778725271
 Na         1.3462329197        3.8807443905       11.9079679436
 Na        16.7800241330       14.3193620651        5.6339995150
 Na         9.1450141604        4.4075151530        4.8928771369
 Na        -0.6890222704       13.6978683348       19.2630872909
 Na         5.3045837580        4.0748370030       12.6780666274
 Na         9.7189917368        9.7610583408       10.0244052773
 Na        10.3545346942       20.1432378635        4.3774058273
 Na        20.3766366808       19.7048489758        7.3893960557
 Na        15.9365102332       15.6025943888        9.4075739403
 Na        15.8783511496        2.5758495474        9.6228554249
 Na         4.0394825154        5.4673638442        5.5991254950
 Na        16.3955250400       15.9595415057       17.9778483537
 Na        10.9034319899       11.5818684110       20.2011015707
 Na         5.2759967069        1.4101261619       16.2274001093
 Na        12.3446124114        6.4529970970        6.0336606444
 Na         8.6706075145        2.6679882514       12.7211447235
 Na        11.3780534497       21.5626862405       18.0525423524
 Na         6.7355102449       13.8001289082        7.9343137087
 Na        10.5922726217        5.3175058650       18.7174609446
 Na        12.0860383483        6.2521592239        2.4632638300
 Na         5.7584786814       17.2420975534        8.5428616824
 Na         4.1502902659       14.8085372779       14.8632378969
 Na         1.2705607613       10.9113941141       17.9714312624
 Na        13.1782577440       13.4184235792        3.4692244919
 Na        13.7685379855        1.3370575606        7.2465799285
 Na        10.5562535821        2.2050932970        7.1265129922
 Na        -1.0513991028       20.0702008775       10.6090487216
 Na        17.6310856324        3.3362428722       12.1702287760
 Na        17.6875356528        5.1381628051       15.2226778113
 Na        10.0241978796       11.1732833246       14.5894718749
 Na        -1.4844214458       16.0695074739       15.0629336812
 Na         3.0134658808        1.1615857092       14.1315237628
 Na        12.3085775113       12.6525269181        8.7975503399
 Na        19.1458714541        5.3039100312        3.2991773169
 Na        14.9628262889       13.1554176738       15.2322376514
 Na         0.2915566035       16.5759305045       20.0467193840
 Na        15.6506471797       11.2953838442        3.9049836712
 Na         3.6843494160        9.1907719451        5.5344661324
 Na         2.8627423740       12.0086045369        3.8821382238
 Na         2.1266860850        4.0318210243       17.3673508088
 Na        18.6408329564        9.0782241628        8.4109243790
 Na        16.1375863378       10.1657701139       14.6154484593
 Na         5.9182555294        4.1642926393       16.3613029971
 Na        13.4328849075        6.7220714686       19.0212410222
 Na         6.4684775156        9.7195915106       -0.4778638093
 Na         1.3481894002       12.2832958431       10.0387049060
 Na         8.7486910516        7.5543169679        1.3334520299
 Na         1.9068869440        9.4724701297       12.8027788031
 Na         5.4482661811        3.6897990904        8.5150508834
 Na        14.8479260495       19.5769866598       16.9337475744
 Na        13.5695544223       20.7922149292       10.9738487500
 Na         7.2051728218        7.7578049223       11.8996362976
 Na         4.0525972211       10.3858926761       16.7131189178
 Si         0.8257190259        3.3929744704        6.1621362190
 Si         8.0504699573        4.1472714867        1.0215852698
 Si         4.3427069750       12.0748274028        0.5591305958
 Si        17.6572313327       16.9915548845        6.7942443530
 Si        17.2146157017        2.4383745386       19.7107340287
 Si         1.8055551111        7.6501033112        3.3069511770
 Si        18.1077870053       12.3185314617        3.2705729430
 Si         3.3070273287        1.7369975119        5.7825892748
 Si         6.0296747447        3.8265540082        3.3301013410
 Si         9.5086401204        1.7040985829       15.9099188226
 Si        17.7077315228        2.3890392802       16.8220640771
 Si         9.6839601792       17.9406473797        2.4575965449
 Si        16.2338691522       18.9424842830        4.8575000599
 Si        14.2785028043       12.8600937928       20.2755567883
 Si        19.2033688685       17.5206684646        9.3741842746
 Si        10.5571062088        3.2773432551        2.0734067747
 Si         8.4052133617       18.2791685133       19.1978423428
 Si        12.1759120659        6.4061889241       16.2883711975
 Si        17.5163934621        5.3410525010        9.5209640157
 Si        11.4472829051        8.6787798045        0.9822875026
 Si        14.7608599882        5.2523374991        4.4848583918
 Si         3.1793031501       17.5949891303       13.4055610145
 Si        18.0079966885       12.8733817574       16.0452084063
 Si         2.6836437825       20.6182759767       19.7226752358
 Si        13.8151163813       17.3640472424       19.7270971886
 Si        14.3673208640       20.2704148996       19.8934915443
 Si        13.3464668643       16.4395759753       16.8509574752
 Si        17.9422548443       18.7112947396       17.1143920232
 Si         4.4969479769       20.5914332882        3.0158136499
 Si         0.7271733458        6.7911665588       10.3128197478
 Si         8.1747272970       15.6163625791        1.1687595770
 Si         3.5401879544       18.3503792140       17.9003354296
 Si        17.9617477241       10.5068906739       20.2850237772
 Si         7.5692019005        1.7190124802       18.4639865335
 Si        19.4587023688        7.3400314628       16.8389447436
 Si        16.7769262127       14.8600139224        1.7331427781
 Si         2.6092687648        8.8301871573        9.0842722797
 Si        16.0200830838       11.6797505635       17.9997618352
 Si        18.9696096888        2.7654901812        8.8365579436
 Si         0.1285939443       10.1456116474       15.2937124615
 Si        15.8689098036       19.9558716848       12.8069647981
 Si        15.3021656320        5.1274996533        7.4513680685
 Si         3.4348919184        4.0520015055       14.7685432586
 Si        15.3444668246        2.8263566834       14.8741579478
 Si        -0.2893873049       19.3678040735       20.0430268077
 Si         1.2045436071       14.8919704299       17.0188255088
 Si         1.7225223930        6.7274473950       19.4248633215
 Si         7.3330221902        6.3501974362       18.2459649614
 Si         4.2869754952        0.7681992302        8.4895468570
 Si        16.0066969365        4.9789627485        1.6305231247
 Si        12.2402903380        3.2527416196        4.7555705894
 Si         2.6006180619       15.8344502681        3.8525939864
 Si         0.4645810150        2.9686383976       14.5713931331
 Si         4.7151634410        7.4648598635       18.7970702290
 Si        17.2558630426       17.2803383881       11.9293193703
 Si         5.4756202607       17.7374892478       15.4504117879
 Si         1.6595883241       11.0410787780        7.3734254176
 Si        14.8238070717       16.4153538809        3.3846115245
 Si         7.5323421084       19.5726722539       13.7952257243
 Si         2.0046605229        4.1782880089        1.0944657738
 Si         1.1961110635       17.7716877642       16.0365107374
 Si        16.3048774226        7.8938807905        1.1459841789
 Se         4.3971288949        8.3762007476       13.7138283772
 Se         6.5528585114        5.8776301279        6.9313080429
 Se         5.4280215245        5.8639070611       10.4876341020
 Se         8.2547596563        5.2976110964       13.1924815845
 Se         8.3714704143        3.0641002118        9.7962455245
 Se        11.2169255463        1.3839156590       12.3282502525
 Se         2.8365064984       12.5901256282       12.3660165413
 Se         5.9788138903       12.5604561353        4.8743255720
 Se         6.9013057898       10.1013133838        8.7055890779
 Se         7.4118699997       10.4490674059       13.2502233070
 Se         9.2733573277        7.1906086189        4.0696027908
 Se        10.1927099898        7.2910030636        8.5927887120
 Se        11.0441746393        9.1079060981       12.8242869686
 Se         8.5865288331       11.2066809500       17.4163010102
 Se        12.4056485979        4.9844100599       11.1663396446
 Se        15.4527114951        7.6914496046       13.3386317627
 Se         6.7453002989       16.4402507551        6.0809434763
 Se         3.4770809902       14.7933691595        8.4904590778
 Se         7.0163381050       14.7219973838       11.0018882765
 Se        10.2272970290       13.5164341284        3.6976160720
 Se         9.4833578408       13.2471164365        8.2316889925
 Se        10.8368475691       12.5336135819       11.3444083554
 Se         9.0615298465       14.0882328218       14.8738342724
 Se        16.6113973340        8.9523276627        6.3272769938
 Se        12.9466177209       11.4638724330        5.4099986300
 Se        15.2050075815       12.0424857914       12.3392336217
 Se        12.5169725930       11.9006287604       15.4616372911
 Se        13.4162719679        9.5155635319        9.5031961169
 Se         8.6432989255       17.8172924615        9.7255736084
 Se        11.8013629913       16.5861396684       13.1331671713
 Se        11.1019022496       17.4177431781        6.3929518247
 Se        12.7425836482       15.4897135191        9.3682900242
 Se        15.7901753390       13.0183175078        8.2159715361
 Cd         5.4294410333        7.7949181834        8.4755468810
 Cd         8.3983194682        5.4158999607        8.7093742070
 Cd         3.4111109673        6.7366451786       11.8050389821
 Cd         3.4106125628        7.2564596395       15.8666008445
 Cd        10.9546746590        2.9231808480       10.1716413192
 Cd         8.1323664357        0.8092436024        8.4983962216
 Cd         3.9988977037       13.4891166375        6.3139672224
 Cd         6.6607975341       10.3330480277        6.1225913938
 Cd         4.9878820561       11.1345474692       13.5397181725
 Cd         6.9426788930       12.2405364807       15.9316693267
 Cd         6.5646457616        6.9875675438        4.5249816870
 Cd         9.2279088865        8.6057214089        6.5113394940
 Cd        10.5865710768        6.1466275552       12.6374520621
 Cd         9.4099260597        5.1257341959       15.6904763395
 Cd        12.6997996105        6.9568254538        9.3941017951
 Cd        12.9289691131        7.8373996773       13.8767555788
 Cd         8.0086355038       14.6239389740        4.5433016479
 Cd         4.3985358230       14.1905826248       10.9795080211
 Cd        10.0605517696       14.7925590603       12.4573830234
 Cd         6.4431811758       21.1412600403        5.9130514517
 Cd        10.0936953539       12.2616701176        5.9340084878
 Cd         7.9924174608       12.4005571073       11.5852367018
 Cd        11.6572040168       14.6602934541       15.2473819798
 Cd        14.0268052035        9.7275276051        1.2570751025
 Cd        14.6703905216       10.5366701304        7.2886395849
 Cd        12.6693780292       11.2672146402       12.7504140094
 Cd        13.2727933935        9.8449769218       17.0728229970
 Cd        15.3153241786        9.5571885722       11.2620419863
 Cd         8.6701327151       18.1139545359        5.8265220612
 Cd         9.9539308054       18.4382271450       11.8503506625
 Cd        13.9198129413       17.7526043637       10.8634144412
 Cd        10.3603832545       15.8048565546        8.4443885826
 Cd        17.2297783534       11.9756771157       10.1717715762
