438
 i =     6500, time =    13000.000, E =    -10932.4195836306
  O         4.0579956238       16.5720373330        3.1716073527
  O         3.3352102105        8.6305186134       10.2341169651
  O        14.1443985535        1.1257044444        1.9284907482
  O        12.1285533549       15.8051872538       16.9952683294
  O         1.4371343479        7.3063507263        1.6459922699
  O        16.0537307486       16.5419805747       11.8841228808
  O         4.2394852151       11.4866792610       18.9001854319
  O        17.2808541219       15.7203833085       19.9837227422
  O        15.3193945076       13.9795787270       20.8194153617
  O         1.5739258208       15.8444841969        2.6973281348
  O        11.0912949554        7.2294891773        0.6883534625
  O        17.9885606412       13.6091858030        2.1607808423
  O        10.6895490034        6.2389521623       17.0419253766
  O         1.2625211211       14.7830097054       18.8477634664
  O        17.9717397744        3.1731281204       18.4470094386
  O        12.3078193070        2.0336856170        8.8680907584
  O        13.7136103543        1.3644816692       18.5656536720
  O        17.0663967865        6.4493595039        1.4659670349
  O        10.7056918158        0.7626179914       16.0613668719
  O        15.6794870571       19.4537362072        6.4725390786
  O         4.6025141476        8.4002892533       20.2107496071
  O         2.8050980815       18.8155404034       12.4540139074
  O         1.0207079240        7.9752396157        8.9614632229
  O        16.3978998180       16.3362127075        7.3829366278
  O        17.1361762722        3.8071786859        1.5583568261
  O         7.3360076079        6.2292442005       16.8529345305
  O        15.9334856541        1.8701562181       19.4941457096
  O        -0.1704399422       18.3910786293        2.0688565307
  O        -0.0259890570        4.3909874921       13.7334845915
  O         2.4773118226       18.0283290954       17.1870417080
  O        11.8776800665        3.8587469618        3.1738384677
  O         0.4698702320        2.4397268974        7.7526021036
  O         4.5068853317        3.1221665663       14.2378301588
  O        16.8577226897        4.7108616420       10.8651813908
  O         5.4431424335        5.4025616251        4.0378486006
  O        11.6188536779        4.1041567308        5.8470055374
  O         4.3347586098       19.0083254674        9.5395551011
  O        14.7377878379       15.5420552104       16.0180930031
  O        17.1543395496       11.3052226685       19.4114518574
  O        14.7466036391        5.0162964703       20.3523666067
  O        18.9192649790        3.3146631161        5.2781606599
  O         3.3487087622        8.1294583309        7.5893327481
  O         4.7278209993       17.3218929997       18.6382387363
  O        13.0830838937        7.5207725919       16.5664411191
  O         2.0549550061        3.2550780739       14.9697997106
  O        15.9141451282        5.1361507409        3.4223836897
  O        14.4906367633       11.5887414574        1.9415162035
  O         9.6060530997       19.0696558908       20.4059892388
  O         5.8709690700       19.7152458014        2.8107587717
  O        17.3118059828       18.9599014175       12.6786346353
  O         5.0383114323       12.5137605436       15.3236209456
  O         0.7378618774       16.1982374303       16.5208640285
  O        11.4435745583       18.2268203482        2.9029859268
  O        18.0369602536       10.9783760983        2.4758493521
  O         9.7515212876       16.4583855546        1.7208702568
  O         0.4882228591        1.7869625905       13.5237875073
  O         7.3138984271        3.3686387084        4.2748364975
  O         0.8990451181       18.5872454441        9.6575033466
  O        18.4194079839       20.8145708701        1.1390931223
  O         3.0705912352        4.7191357851        1.5047207933
  O        17.5877191414       13.7619639412       14.7173183313
  O         0.1550056345       13.5805743675       16.7279950603
  O        14.7843830872       12.3089197000       18.5861942349
  O         0.9276739720        7.6120443952       11.7714534920
  O         8.0379972355        2.7436079579       19.8642105506
  O         0.3918396780       10.9298897962       19.9066113564
  O         3.7560247548        2.2104403091        9.2632430722
  O         9.9881502629        3.3595961882       15.5264101394
  O         0.5592806372        7.5709830990       18.5479411958
  O        12.7567443444       13.2696917445       20.1479569118
  O         6.0744813025       19.2333443700       14.0617921672
  O         3.4837002496       11.7344582501        2.0228422383
  O        14.3213148176       16.3959023685       18.4624350541
  O         2.4100705997        2.8114994795       19.2106280451
  O        19.6689891938        9.7626014972       13.9199682852
  O         7.3353621060       15.4609605650        2.4929278150
  O         0.0699728041        7.1346273146        4.1246070125
  O        17.8593699548       17.6400264530       10.4739203488
  O         8.9273030392        2.1154245128       17.6310450829
  O        13.8796601212        6.0173792621        7.8745960886
  O         2.1824585474       10.4137504194        8.7531774713
  O         2.1379102580        8.8306324027        3.5915988220
  O         8.5236071300       18.5015264997       13.6498786118
  O         3.6490650885        0.6207268344        7.0513660182
  O        12.3475033790        5.7372078911       14.8271970521
  O        12.0733120431        9.6197518860       19.2015656734
  O        15.3862137798        8.0606885855       19.5117767434
  O        10.2313610902        9.6290512622        1.6907727141
  O         7.3142986380        1.4599753651       12.5512733822
  O         8.5936341181       20.4784853835        6.5387276736
  O         3.1924174318       11.3578400013        6.3891464062
  O         2.7734663763        5.0507706250       13.2017306105
  O         5.5919865556        6.1599958464       18.8440793098
  O         2.1927444015       17.3110431324        4.9140924838
  O        17.6041959475       20.2643867035       17.1478759563
  O         2.6995045545       14.5066166926       16.5233541801
  O        -0.5740629732       18.6966107796       18.8264174813
  O         1.3673525579        4.7773113983        6.4973447667
  O         3.8384018113       20.3409078211        4.3957731418
  O        15.1799411015       17.8609271286        4.0758939845
  O         9.4457513767        4.4388086585        2.0364669477
  O        12.4517244395       17.8276456946       19.4901792210
  O        14.1391772835       16.7427655237        1.8310146477
  O        17.0307677940       12.6534690927       17.1152873076
  O        13.6906597050        6.4289253862        4.4659768043
  O        17.4842622870        9.6738870429       10.7280324183
  O         4.8221579605        8.3558625384       17.4480007835
  O         0.9817780977        5.0358572113       19.3731444019
  O         0.4850541968       12.4466645473        3.7700310053
  O        18.5114786852        6.7389972005        9.8818727046
  O        15.1330190769       18.7191391825       19.6938497848
  O         1.7099580530       10.5955914880       16.1434491887
  O        -0.2417747061        2.8922462125       15.9927200641
  O        14.3186011656       18.7455852196        9.4179100000
  O         6.1439956785       11.4069261560        1.4530199142
  O         8.7714928626       18.3730610326        3.4926687841
  O        15.0696404316        3.5838946119        7.8568853107
  O         3.1146767140        6.6335595816       18.8657445228
  O         0.8290226202       10.1006988055        6.4224826592
  O        12.4180575009        1.7078088177        4.9649459238
  O        18.5858096397       17.8458192636        7.9215753227
  O         9.3080075310       17.8980537425       18.0606665463
  O        16.8422612828       19.9580732915        4.1631167844
  O        18.3675331975        4.2651676926        8.8161911646
  O        18.6842665483       13.2652290915       11.1327648452
  O         3.8071599089        5.1553570061       15.8054522166
  O         4.3986431074       17.1660594846       14.1264905235
  O        15.7600496003       10.3172829504       17.2170483244
  O        16.2992552321       15.6569461418        3.1742835251
  O        16.2572311585        1.2231020740       14.3977709009
  O        15.6877551790        3.8762441202       14.0620392243
  O         5.9933431247        1.1921745631        8.0279174072
  O         1.8146399626       17.5711090716       14.5222283714
  O         7.5147649519       17.5753328455       20.1369314029
  O         7.6913140296        7.9193454089       19.0493364682
  O        13.5983153576       18.0142716581       16.2942849461
  O         1.8640412257        2.1421334439        5.5955551844
  O        16.4289218504        3.0001998127       16.3954988058
  O        13.9933161452        3.7685040279        4.6506832370
  O        -0.8471300134       16.6132293329       13.0305152142
  O        17.7978153331        8.9134937221       20.0934911316
  O         0.2720571702       15.9145459186        9.6215914662
  O         6.0579679867        2.5707908487       17.9512423670
  O         6.6346345357       17.0446806557       15.6170366354
  O        17.2617766836       17.6355031249       16.6934728622
  O         4.4530208704        3.0090727666        5.9566151657
  O        15.9799981843        1.5364248567       11.7099277965
  O         2.6078933631        6.2777971790        4.0818333159
  O        17.5885097183       21.0621903707        8.7958185859
  O         0.2210235248       18.7352359728       16.2381137175
  O        15.7681842775        8.5649439037        2.6555804232
  O         1.7733916192        5.6020459706       10.2732617002
  O         1.4923989579       19.7914232061       19.9383809086
  O         1.0201635400       12.5881308139        7.4682875183
  O         6.8029874411        4.5472844007        2.0040740151
  O         2.8457023212       16.1424115852       12.4044731063
  O         3.5534337469       20.5513239774        1.7739695449
  O        11.2727413304        2.9710877557        0.7429360095
  O         3.8721142753       19.8908592773       18.6723950891
  O        16.4178709117        5.9496761328        8.4691689515
  O         2.7882489253       14.6726909969        4.9148538385
  O        12.5675727535        8.7099526777        2.4320406093
  O        13.1153982803        4.9378148576       17.2058256350
  O         8.3233698443       15.0606077021       19.3021220823
  O         5.9236307284        8.9702617106        4.5849786584
  O         7.5439319663       19.8159314680       18.8798626613
  O         8.0593304776        5.2106225441       -0.1607022582
  O        14.5870540994       18.9398159345       13.0637706695
  O         0.8363847446        3.3121059632        2.1385402708
  O        18.7420833578       15.6135326862        6.3355623149
  O         8.1979284467        1.4062557079       15.0435721097
  O         9.0449099632       10.5323454553        5.3292508591
  O        17.2652272262       12.5781291078        4.5555347889
  O        18.1614061360        6.5456944149       16.8929688831
  O        18.9839583264        8.9525106408       16.4383286833
  O        14.0917979557        2.2187246951       15.4986291148
  O         4.7812288761       18.8928338860       16.2896386365
  O         0.2835135575        2.4804927555       10.4076994855
  O        13.8516940489       15.3986232774        4.2753949208
  O        17.5309403636       17.8246351594        5.4273858049
  O        15.6530205517        5.4321244829        5.9400212814
  O        10.0582490414        1.9812886340       22.4368578124
  O         4.9583713951        2.9923804662        2.9299673271
  O         1.3065029889        6.9583607430       15.9844020416
  O        18.5366234039       11.3648868444       15.4288441836
  O         4.9119661793       13.7742252239        0.7427196459
 Na        13.0648326678       14.1992896507        6.3149006752
 Na        -0.0789494323       18.9140731701       13.8552849523
 Na        14.4822706945        3.3582134993       17.6784890193
 Na        14.3228240178       17.6390635670        7.4807703983
 Na         4.3012924506       13.5519675058       17.9211522681
 Na        13.4019371390       19.2453678500        3.5782918080
 Na         4.9581369463        3.8534571591       19.7982692962
 Na         2.0542160040       18.6220160998        3.0222145149
 Na         7.1902469078       16.2770472165       17.5628695529
 Na        18.8550600858       20.9444929589        3.5403116515
 Na        19.2704588063       16.6919998694        4.0929234124
 Na         3.7585838200       15.8967480727       20.0303526317
 Na        14.7565171444        5.4308932449       15.5383607734
 Na         2.1927208158       20.2651533731       10.4556547507
 Na        11.6459445829       18.7354822274       17.5780202681
 Na         7.8812158912       16.3598720108       13.9082509550
 Na        13.3946665881        3.3435785701       20.7990582410
 Na         5.3576639655        0.3383746923       11.5064504773
 Na        19.9559384479       13.9569090142        5.4708704964
 Na        11.7951630426       19.9877948772        0.8251153772
 Na        17.2976858112       14.3864859214       12.4612338761
 Na         2.1293221197        9.4876896600        1.3444443829
 Na         4.0834279850       11.1745298904        9.9040831679
 Na        12.3359676297        3.5596928150       14.4924248579
 Na        12.6393449762        3.9309431708        8.0710783951
 Na        13.9115557615        8.6591543244        4.3789044842
 Na         0.9454482768        6.4702721163       13.7197534585
 Na         2.4734551883       12.6378917562       15.2846409537
 Na         4.3072154037       18.0205381480        5.3905011354
 Na        18.2318773848        5.5746732014       18.9497837568
 Na        12.1119119143       15.5496093492        1.7349539303
 Na         1.6643455060       16.2686195586        6.8774425595
 Na         7.9067926484       20.5508775444        2.7662471351
 Na        15.5967171999        2.3313787607        3.6089650514
 Na        18.8583728826       11.7642868789       12.9799477828
 Na        10.5147804179       16.0327855879       18.6341909330
 Na        16.8409708603       17.9905190587       21.3141962273
 Na        12.9833170271       19.5707925613       14.6593794172
 Na         2.6270180860       17.5060795286       10.3851863736
 Na        15.0298080629       16.9644080652       14.3387121552
 Na        13.1339602808       14.2496961001       11.5155748862
 Na        18.3134611896        8.2853350866       12.3119737831
 Na         4.8881773699        9.7615530153        2.5660912425
 Na        15.2940379756        5.2982311212       12.3219458853
 Na        10.8897690666       10.0827326561        3.7727527557
 Na         6.7283526769        8.3922852549       16.2174190248
 Na         5.6709436314       18.9508067555        0.7334526600
 Na         7.2466281830       13.3423944660        0.8800651440
 Na        16.2351080819        8.2287793145        8.9345812063
 Na        11.6085454354       16.4721710710        4.4359231818
 Na        16.5574366219       18.9820955206        8.6536691270
 Na         5.1845435605       14.4504275863        2.9137298101
 Na        16.8299588963        2.3075425998        6.6007615023
 Na         9.1184031320       18.3315617698       15.9161092408
 Na         6.3787835901       17.5734634446        3.1637268262
 Na         4.1645727682        6.4897469665        2.3612579011
 Na        17.9217507471        5.8064636778        6.6085977844
 Na        18.2285841844       11.4910944089        6.3506162749
 Na        17.2980172586        7.4731529557        3.8237935124
 Na         2.1430034466        3.8462578819        8.7743232008
 Na        12.9235194529       13.7266872122       17.7090138226
 Na         9.8670553750        8.0622079059       18.0517210645
 Na         2.6799636125        4.0498210489        3.8419090678
 Na         1.2335452830        7.4989239058        6.4544452914
 Na        18.5052993249       14.3379341308        8.2961303304
 Na         1.9171352943       13.3945311556        1.6498487015
 Na         7.7042849762       10.4942392733        3.3126100311
 Na        19.4558529738        9.9316338529        4.2052959048
 Na         0.7491186730       15.1409892081       11.6724255163
 Na        11.9147079853       19.1354633440        9.2190459758
 Na        16.5516877035        8.2970610679       17.4093567388
 Na         1.3768555504        3.8678719103       11.8583071258
 Na        16.4152432361       14.4124232143        5.6545624069
 Na         9.3564785416        4.0352077863        4.8518978389
 Na        -0.6460112337       13.1174334240       19.0304350716
 Na         6.0265621689        3.6415316455       12.7309377914
 Na         9.9403865627        9.8985077493       10.5134353085
 Na        10.5769029713       19.8245093224        4.4568283105
 Na        20.2515241743       19.5445099506        7.3791512135
 Na        16.0758321448       15.8642106930        9.6425054122
 Na        15.8522944783        2.8362845248        9.8601096471
 Na         4.0540163640        5.5255763673        5.8002724188
 Na        16.4158703925       15.8887299511       17.8905869620
 Na        10.8334718217       11.5570984079       19.8412592625
 Na         5.6572766795        1.8493125731       15.8043141187
 Na        12.1078253702        6.4747994943        6.1119728120
 Na         9.0688331395        2.8379813954       12.8092199404
 Na        11.8818633853       21.8940524976       17.6733708129
 Na         6.9967971050       14.3985532792        7.8366391677
 Na        10.6694305011        5.1505028020       19.0436712481
 Na        12.0262408001        6.4838109345        2.9387281151
 Na         5.6759577322       17.3261926174        9.0243388272
 Na         4.2158322800       14.7777414202       14.7795697435
 Na         2.0659230948       11.0359125592       18.4813638328
 Na        13.3884444814       13.0127918761        3.4511379254
 Na        13.8503826356        1.4718768791        7.2057804682
 Na        10.7442083881        1.8302692889        7.2980367217
 Na        -0.9626263384       20.0665000053       10.9666741402
 Na        17.6215763040        3.1704218934       12.3424500303
 Na        17.6183139887        5.3072520276       15.0807280174
 Na         9.7099143065       11.0542089208       14.8300633546
 Na        -1.2896278636       16.0697236914       15.2774621138
 Na         2.8828367143        1.4107385509       14.0770154741
 Na        12.4895716079       12.2631759180        8.8060504270
 Na        19.3118825122        4.8936831618        3.6833101413
 Na        15.0841941748       13.3340572953       15.4430432292
 Na         0.2433571895       16.3341554952       20.3049678348
 Na        15.8819949943       10.8971001999        3.6881360631
 Na         3.6863597689        9.2006479683        5.3555775870
 Na         2.8239333501       11.8504734878        4.1625577791
 Na         2.0014767842        4.3661999714       17.1226951087
 Na        19.1930323132        9.8912844918        9.0377493713
 Na        16.4300107283       10.4505796008       14.9219251516
 Na         5.9046578005        4.5205615334       16.6719547554
 Na        13.6434521560        6.6135941462       19.0405416870
 Na         6.3627320575        9.7088335417       -0.2068586859
 Na         1.2760996122       12.9793539425        9.7012045585
 Na         9.0081443989        7.6522570770        1.6835898995
 Na         2.0697808512        9.5540374466       12.5902716240
 Na         5.4496945635        3.6407246956        9.0220882442
 Na        15.0843313788       19.5055241525       17.0863056056
 Na        13.9143354438       20.4825350243       10.6720854633
 Na         7.2681610947        8.2067316367       12.0454801662
 Na         4.2478910343       10.4374205186       16.5586569435
 Si         0.7292545884        3.2904084160        6.2467869303
 Si         8.0940098138        4.1798134958        1.1581300383
 Si         4.7170229735       12.1043963270        0.9236310865
 Si        17.7623579009       16.8840212779        6.7902519607
 Si        17.3692317021        2.5265048051       19.8714737663
 Si         1.5910373294        7.3138261098        3.4742372073
 Si        18.3274481104       12.5042829653        3.3436933765
 Si         3.4336860281        1.7570687058        5.8358483444
 Si         6.1461375766        4.0805084841        3.4458280852
 Si         9.5359541478        1.8826403303       16.0302181369
 Si        17.8800215450        2.4648969827       16.9458600150
 Si         9.9510323047       18.0642689141        2.3719361357
 Si        16.2799180233       18.8618262141        5.1112023663
 Si        14.3292811374       12.7884963721       20.1771951781
 Si        19.2483630145       17.4582880012        9.4595154094
 Si        10.6650207553        3.2147828703        2.2210131884
 Si         8.5608340634       18.5578234631       19.2849593414
 Si        12.1716228495        6.1045852840       16.4488130665
 Si        17.5322034749        5.4015922256        9.5980215458
 Si        11.4884156108        8.7891880022        1.1656955575
 Si        14.6499376173        5.2315034623        4.5604466996
 Si         2.9560775915       17.4894576473       13.2818221366
 Si        18.2245994368       12.9350510297       15.9406012407
 Si         2.8122590984       20.6354413470       19.6676236819
 Si        13.9759523160       17.4078890308       19.7132025697
 Si        14.6421709632       20.3097693774       19.8016920238
 Si        13.6636031794       16.5030530108       16.8569300182
 Si        18.2762053223       18.7236775780       17.2041988561
 Si         4.6690981522       20.7373815263        3.0122127016
 Si         0.7887949746        6.9035535849       10.3436012608
 Si         8.1815818921       16.0260833298        1.2501108611
 Si         4.0457766052       18.4204227919       17.6954277539
 Si        18.2842266914       10.4707163114       20.3323832016
 Si         7.5156556012        1.9714758489       18.4582362425
 Si        19.5125704930        7.4444253732       16.9225465164
 Si        16.7488038131       14.7204624208        1.7771819919
 Si         2.5476629626        8.6939269803        8.8120301285
 Si        16.1740598885       11.5343122002       18.0860406402
 Si        18.8329286396        2.6480384053        9.0258645246
 Si         0.3625705771       10.1201287056       15.4197303844
 Si        15.8804088475       19.9301299443       12.9408269769
 Si        15.2057620424        5.1614880787        7.5821608183
 Si         3.3719431414        4.2399701600       14.4564825034
 Si        15.5372910411        2.5783330519       15.0011580583
 Si        -0.0941997680       19.4114274177       20.2355761499
 Si         1.3110763552       14.7634755345       17.2348685120
 Si         1.5749677025        6.6731192108       19.4897386056
 Si         7.1556184648        6.5008785818       18.4564941232
 Si         4.4496790693        0.9449780397        8.5620790029
 Si        16.0693577421        5.1115965909        1.7622039118
 Si        12.3693213226        3.2908581284        4.6925728048
 Si         2.7167969857       16.0437353546        3.9325940299
 Si         0.4783632328        3.0748698245       14.4656507886
 Si         4.5416504376        7.5006947849       18.8634064548
 Si        17.4673484639       17.3395071428       12.1027525213
 Si         5.4920003133       17.9974246883       15.0470138614
 Si         1.7919191610       11.1626587657        7.1738427579
 Si        14.8118248789       16.3776957004        3.4122307113
 Si         7.6636021070       19.8104808923       13.7269967476
 Si         1.8384054778        3.9508357582        1.0032522184
 Si         1.4511960437       17.6034230136       16.0701032684
 Si        16.4864737734        8.0633210193        1.2683180530
 Se         4.6173129860        8.3458176214       13.6670743802
 Se         6.5877444095        5.6927933426        7.1509532250
 Se         5.9398579235        5.9210972813       10.7954911420
 Se         8.1441529781        5.7671660007       13.3979809085
 Se         8.7243350199        3.2282222914        9.5571918846
 Se        11.4984331961        1.5224898643       12.5727177170
 Se         3.1350002138       12.3057025918       12.2351825695
 Se         6.3367313465       13.0760072032        5.4270134432
 Se         6.7725508263       10.0134182514        8.7644050596
 Se         7.5690637240       10.9172690079       12.5630417787
 Se         9.5689754506        7.0716671241        4.4542117488
 Se        10.3021062915        7.8332848589        8.7195957056
 Se        10.8934858136        8.8769739577       13.4690428067
 Se         8.3682799202       10.8018484325       17.4122681747
 Se        12.6112936551        5.2334946861       11.2375603959
 Se        15.7560566528        7.6471172432       13.8039752575
 Se         6.7204794389       16.7109935645        6.0578039352
 Se         3.7742994808       15.0533489393        8.5399845373
 Se         7.0763747001       14.6770836339       11.1725755339
 Se        10.3397453777       13.8733745180        3.7520925919
 Se         9.5707855772       13.4723403940        8.5658789497
 Se        10.9373348396       12.2345367517       11.6026970187
 Se         9.1569891952       14.2206047470       15.4364368521
 Se        16.6084485721        9.0608102070        6.0747944066
 Se        12.7099620939       11.2518081831        5.7354452331
 Se        15.1940873045       12.0357250497       12.7798617216
 Se        12.6161005907       11.8170297637       15.8027555368
 Se        13.6601187439        9.4817691719        9.7268924870
 Se         8.7226210831       17.9392778755       10.0456578702
 Se        11.8104200522       16.5462126088       12.6007015807
 Se        11.1053640991       17.8627526625        6.8028672452
 Se        13.2048293534       15.1614117424        8.8701778898
 Se        16.0494408399       12.8919426989        8.3401193515
 Cd         5.3736071432        7.6296799637        8.7424776526
 Cd         8.8489881776        5.5974645596        8.5970764811
 Cd         3.6284285607        6.4971762051       11.6884274687
 Cd         3.3801099930        7.3934386658       15.7554874610
 Cd        11.2287170447        2.9991839790       10.4308185046
 Cd         8.1394667939        0.7480290615        8.6750737269
 Cd         3.9635848947       13.6475510139        6.4147714985
 Cd         6.7595516147       10.5412518127        6.2688826850
 Cd         5.1028183155       11.0040269592       13.6758211487
 Cd         7.0403270164       12.4240172974       16.0443129635
 Cd         6.9123074001        6.9763634088        4.7888248299
 Cd         9.6731480078        8.8195690252        6.3966566739
 Cd        10.6469327969        6.2987015416       12.8376738265
 Cd         9.1443167167        5.4231396161       15.7057823441
 Cd        12.7618534086        7.1272554609        9.4320913780
 Cd        13.0484070075        7.9588555988       14.2472209706
 Cd         8.1242647728       14.9529037288        4.6663409454
 Cd         4.3695928920       14.4742716073       11.2006953195
 Cd         8.9836376100       13.2786926793       12.8300300238
 Cd         6.7884883477       21.8256707158        6.2663761302
 Cd         9.9625861163       12.3698823761        6.0595218361
 Cd         7.6885424766       12.2715776321       10.1555290881
 Cd        11.3633396478       15.3559388437       14.9203766524
 Cd        14.1918148814        9.6141109151        1.1769247111
 Cd        14.9898194153       10.8350025267        7.1186190871
 Cd        12.6387361448       11.1259821519       13.1601056704
 Cd        13.1992917421        9.5637206734       17.1801530902
 Cd        15.4756182166        9.2920059119       11.6267469151
 Cd         8.5491160144       18.3593580476        6.0745124818
 Cd        10.1718630373       18.8121270018       12.0810335722
 Cd        14.0999923650       17.6237235298       11.1447299011
 Cd        10.5422260170       15.9785625651        8.8089098528
 Cd        16.9632913804       11.7787274356       10.5069775103
