438
 i =     7900, time =    15800.000, E =    -10932.3741231061
  O         4.3766716754       16.3703160144        3.3541784302
  O         3.6355367615        8.6960654905        9.8792994814
  O        14.0198083080        1.1686026017        1.9950473874
  O        12.2192526318       15.8139522147       17.1046054739
  O         1.6048151899        7.2546453642        1.4849558390
  O        15.7432350465       16.4174046780       12.0053066819
  O         3.8930212815       11.3943603410       18.7587939673
  O        17.5392162853       15.7118690350       19.9802830308
  O        15.7348457003       13.9314763499       20.7028271586
  O         1.9233279704       15.7943953464        2.4795370203
  O        11.3424468543        7.2883763144        0.5694851638
  O        18.2935368932       13.9262901739        2.2315439818
  O        10.6293630750        6.4430532471       16.9059049441
  O         1.4177278861       14.6356579526       18.7567602364
  O        17.9370203826        2.9112738292       18.3272219084
  O        12.0142705443        2.1087931775        8.7797130055
  O        13.5187242522        1.2881783759       18.7329623323
  O        17.1910651262        6.5069766937        1.4260752974
  O        10.5144946658        0.5925675684       16.0513219363
  O        15.4544451682       19.4299239012        6.3281431055
  O         4.7503833633        8.1834057282       20.2268344130
  O         3.3566752963       18.6182172081       12.7152898274
  O         1.1337609324        8.0227106182        9.0495279845
  O        16.2702524000       16.2543285476        7.1721418000
  O        17.2901237405        3.9282868140        1.2389303891
  O         7.6245960553        6.2391200073       16.7923864994
  O        15.9074573898        1.7940555589       19.6603491505
  O        -0.2400678323       18.3336225100        2.0440999337
  O        -0.1201637430        4.3904747047       13.7774256097
  O         2.2232613313       17.6591042535       17.4383887155
  O        11.9206571713        4.0884159060        3.0839518873
  O         0.3994397419        2.4035764827        7.6036670249
  O         4.6461369467        3.0520589888       14.5800705748
  O        16.8272396273        4.7212968958       10.8415456768
  O         5.5496100050        5.4450428141        3.9773915891
  O        11.5915142765        4.3438788674        5.8152687614
  O         4.1641074160       18.8809200003        9.4513547730
  O        14.7646479698       15.3977692442       16.2207930373
  O        17.1443819779       11.2511109935       19.2237452362
  O        14.8000244088        5.0724226746       20.4124862011
  O        18.6867092984        3.3609020611        5.3287095929
  O         3.1178850337        8.2165299520        7.2770540685
  O         4.4487212509       17.3763633843       18.9502445582
  O        12.8289822587        8.0581881295       16.4238121226
  O         1.9873482561        2.9876660319       14.9712887055
  O        16.1141013460        4.9320785623        3.3496226943
  O        14.7742859274       11.6454188239        2.0313247132
  O         9.5767960883       18.8916371007       20.4526158568
  O         5.9508538820       19.7995210063        2.8768321516
  O        16.9499382995       18.8346376557       12.7416990258
  O         4.8507246807       12.6112447931       15.1453523427
  O         0.5896613661       16.0712868433       16.3934000989
  O        11.2740001170       18.3134294115        3.2617954085
  O        17.7948781150       11.2310091225        2.2986900217
  O         9.6347239330       16.3936485462        2.0695050715
  O         0.1874446933        1.6618493085       13.4739945575
  O         7.4608691585        3.4141634318        4.4426736015
  O         0.7412175968       18.6312390329        9.9099924998
  O        18.3491542577       20.8564324373        1.1383251307
  O         3.4453307739        4.7246380644        1.4316634915
  O        17.6119748014       13.5315480657       14.8126010700
  O        -0.1481902834       13.5844382889       16.9601070817
  O        14.7411062966       12.2435779863       18.8026843008
  O         0.9663285683        7.6770557937       11.7556444938
  O         8.1809271327        2.6066055397       20.0305544888
  O         0.3511078686       11.2051372728       19.8817712872
  O         3.8762982099        2.1976530127        9.2045998146
  O         9.9152582163        3.2152986245       15.3180744544
  O         0.6165895163        7.5622304764       18.4293726519
  O        13.1075903598       13.5156421903       20.3755261886
  O         5.8872547174       19.3072511541       14.6163496813
  O         3.7697102236       12.6042664285        2.0095930769
  O        14.1690553298       16.5683641970       18.5573583936
  O         2.2588798120        2.7595279641       19.2907183335
  O        19.6717580897        9.8427109562       13.7190279718
  O         7.2041697352       15.2567935496        2.3589831256
  O         0.1457910101        7.8851334636        3.7781131971
  O        17.7434509719       17.6995480607       10.6009840767
  O         8.9541988580        2.0877516455       17.6007968956
  O        13.8847652004        6.0724274007        7.6412302961
  O         2.0530599298       10.5116719313        8.6952933516
  O         2.5603180948        9.0526505135        3.3012481814
  O         8.1851789907       18.4710555401       13.5546867225
  O         3.3582058499        0.5443154241        6.9949453906
  O        12.2962363370        5.9177786813       14.8328283359
  O        12.3894919539        9.8604548677       19.2530516680
  O        15.5108150105        8.1151431629       19.4222611910
  O        10.3184150879        9.7499118159        1.3863330672
  O         6.9489694180        1.3572736393       12.6752227692
  O         8.7718669415       20.5102948748        6.3366676715
  O         2.9276815951       11.5254988656        6.2920809044
  O         2.8240917169        4.7415973713       13.3188394770
  O         5.6508929872        6.0615707362       18.6206117631
  O         2.2795345231       17.1776378662        4.9099764859
  O        17.7105248911       20.1397137247       16.7521572315
  O         2.4641979934       14.1748646886       16.2196699532
  O        -0.4910061810       18.9170444527       18.7465844306
  O         1.4445592387        4.6964793957        6.5518773974
  O         3.8283041616       20.2362846781        4.2973752081
  O        15.3032542315       17.8145229519        4.1293160188
  O         9.6418853984        4.6894338645        1.8124987213
  O        12.5223600488       18.1104617056       19.9790709991
  O        14.4251835714       16.7495959122        1.8348973666
  O        16.7296820982       12.7512155096       17.1550293174
  O        14.1353736918        6.5007932699        4.2414175354
  O        17.1426970674        9.4780749030       10.2725052235
  O         4.7001442129        8.2554050945       17.3910555963
  O         1.1028713679        5.1127821736       19.3636379047
  O         0.4777446393       12.3150491841        3.5872843218
  O        18.5823452051        6.6368492298        9.7440053730
  O        15.1830812637       18.7589429301       19.7331351598
  O         1.8065638517       10.5607918688       15.9233265827
  O        -0.3534575009        3.0203677463       15.9049063118
  O        14.0739439001       19.1466458667        9.3470064796
  O         6.0495061164       11.5525968520        1.1953907083
  O         8.6736932304       18.5871018509        3.5342084934
  O        15.0127128747        3.5313530294        7.8630156007
  O         3.1426435910        6.6495555279       18.7727460318
  O         0.5915180807       10.0437430505        6.6318768405
  O        12.2425425742        1.8451815833        4.7711096422
  O        18.4136868928       17.7485699127        8.1301603028
  O         9.4401494880       17.5935702334       18.0656925111
  O        17.0558338993       19.9049270307        4.1371577671
  O        18.4413672771        4.2209702013        8.8287600214
  O        18.5040109186       13.1134994731       11.0722442789
  O         3.4571268377        4.9367319201       15.9803253711
  O         4.7382900273       16.9089548890       14.4295637168
  O        15.6304514697       10.3025324615       17.0624936884
  O        16.4984090345       15.7673873716        3.1205475500
  O        16.1437754756        1.3956840387       14.2495997432
  O        15.6313172697        4.1202443752       14.1581565151
  O         5.9511522560        0.7707212824        8.0089750434
  O         2.2956112498       17.5673309569       14.8206919066
  O         7.5990614480       17.1950110115       19.9054640403
  O         7.6878561917        7.8006840958       18.9668879998
  O        13.7086487692       17.9509020008       16.2895290681
  O         1.9321882068        2.3044737680        5.6121008730
  O        16.2885930992        2.9067614858       16.3840333876
  O        14.0846737690        3.8472867999        4.5829138840
  O        -1.1252913134       16.5726621795       13.0187166788
  O        17.9686023691        8.9943447459       20.2427122848
  O         0.2295132028       15.9480310143        9.7785756892
  O         6.2939558289        2.4616048068       18.1596317981
  O         6.6514621233       17.1634045818       16.2252177693
  O        17.2303010574       17.5935745564       17.0514736713
  O         4.5898120125        2.8390395386        6.0816347653
  O        15.7461797153        1.6864176411       11.6065646330
  O         2.4106265849        6.4699128612        3.8604734097
  O        17.8472671356       20.9127584880        8.9139609917
  O         0.1160939363       18.5643664735       16.1242511189
  O        15.9434998876        8.5356880786        2.5934152181
  O         1.8835217552        5.7695959229       10.2514915240
  O         1.5359379619       19.7618328051       20.4611803252
  O         0.6934251720       12.5828375764        7.5926604527
  O         7.0086216643        4.5262159271        2.0751319533
  O         2.8415500967       16.0233539440       12.6119589190
  O         3.8785665947       20.7577097955        1.6324087563
  O        11.4451495206        3.1077075651        0.6876735644
  O         3.4301177570       19.9207187355       18.5647685062
  O        16.3829385422        5.7399124359        8.5150966495
  O         2.6899688347       14.4800477803        4.6930676835
  O        12.6835396425        8.8582703752        2.3388683357
  O        13.2482528382        5.5395073809       17.2767616281
  O         8.6602429486       14.7525784606       19.4569657724
  O         5.8465683546        8.8824507979        4.6410675161
  O         7.6114084211       19.6333846857       18.9642393106
  O         8.0226413006        5.0761312332       -0.2884880638
  O        14.4261983842       19.0965702624       13.0671216667
  O         1.1530131645        3.4401707140        2.2623686818
  O        18.7520519285       15.6761814543        6.3402681667
  O         8.0360455558        1.4007387715       15.0654375634
  O         9.2357965182       10.2588733030        5.6358373168
  O        17.2074833545       12.6454552208        4.3871821617
  O        18.0389644080        6.7068938972       16.9438046433
  O        19.0060570498        8.9072707513       16.2320428019
  O        13.8942748696        2.3313308366       15.3937243545
  O         4.4011915375       18.7493267829       16.5195120920
  O         0.5968883591        2.4332268194       10.3150466022
  O        14.0707779408       15.4126414267        4.2404887738
  O        17.5887672808       17.9016142839        5.5619389317
  O        15.8875511784        5.3091520030        5.9348848393
  O        10.0374738446        2.3423151321       22.3140556056
  O         5.1526321297        2.9838503258        3.2449056184
  O         1.1243193994        6.6871027784       15.9625307248
  O        18.7117293672       11.3700036975       15.7187496127
  O         5.0673930854       13.7974994538       -0.0001779430
 Na        13.5174351253       14.6131377371        6.7836739730
 Na        -1.2671626677       19.4900310128       14.5422031058
 Na        14.0547774202        3.3752803936       17.5527401342
 Na        14.3120807879       17.7620614826        7.4267540971
 Na         4.2689024391       13.3135777624       17.3620821480
 Na        13.3261692150       19.2230143883        4.1118517060
 Na         5.0640505513        3.8239414285       19.5741008991
 Na         2.2178102688       18.3758051257        2.7023026263
 Na         6.2370032276       16.1074087617       18.4201284484
 Na        19.1559234267       21.4156919987        3.4952004920
 Na        19.2780749727       17.1956660806        4.2288420880
 Na         3.4390737211       15.5039103716       19.9268176882
 Na        14.6832603194        5.7228966430       15.5353273997
 Na         2.1774525316       20.3106017256       10.5114948905
 Na        11.7424774659       18.5794049212       17.7150625220
 Na         7.2899157755       16.3450410824       13.8490646239
 Na        13.4588113610        3.4676269318       20.9664708413
 Na         5.2550665697       -0.0049053371       11.5806638882
 Na        19.8741615057       13.8809824841        5.4307332315
 Na        11.6316071388       20.0277253160        1.6295093662
 Na        17.1578941385       14.1448975117       12.6490069323
 Na         2.2443607314        9.9056405996        1.1549453728
 Na         4.3407204783       11.2895642958        9.4233836307
 Na        12.2098285057        3.6055589463       14.2646267925
 Na        12.7028415167        3.9801309496        7.8672982095
 Na        14.1712958151        8.7528916795        4.2132048245
 Na         1.0730364335        6.3307198927       13.8094959124
 Na         2.4818827211       12.4001694830       14.9414511296
 Na         4.3163825585       18.0348799762        5.3484578392
 Na        17.9570851979        5.4547987747       18.8444947630
 Na        11.4330621406       15.8356073981        0.4730751646
 Na         1.4373543363       16.0702902848        7.0054121286
 Na         8.0031248487       20.7962835554        2.9013853245
 Na        15.4945665579        2.1490249966        3.5938683905
 Na        18.7778171083       11.9722314096       13.0528212280
 Na         9.1498242745       15.4574902469       17.5021722567
 Na        16.5705279594       18.3879579462       21.4727330388
 Na        12.6854787551       19.7540028479       14.8025409634
 Na         2.5043441553       17.3002524472       10.4857407391
 Na        14.6110563810       17.0843281800       14.2678725673
 Na        13.4591735025       14.3241739471       11.8583194964
 Na        18.4061423381        8.6566088846       12.1042674766
 Na         5.0386069006        9.5391474425        2.6365137030
 Na        15.2332463866        5.5279331122       12.1269787593
 Na        10.6656813633        9.7940139418        3.8478764172
 Na         6.8514057151        8.4105469064       16.1081152298
 Na         5.6373240626       19.0160143079        0.7343984786
 Na         7.3399327087       12.9885380483       -0.3147975516
 Na        15.8568836571        7.9737734111        8.8952412879
 Na        11.7683043355       16.2429256638        4.1933541707
 Na        16.5393642075       19.2646717823        8.6687671403
 Na         5.2240769672       14.2003535952        2.9323974150
 Na        16.9978608666        2.0549498207        6.4201625938
 Na         8.8250334622       17.8909812713       15.7520238623
 Na         6.4460198856       17.4370705430        3.2344457677
 Na         4.2261385359        6.5194293717        2.4383389998
 Na        18.0988577598        5.3417172029        6.5790995468
 Na        17.9194545006       11.6525991718        6.5565674136
 Na        17.3928916544        7.7659708884        4.2234375679
 Na         2.1490153315        3.9169335035        8.6231453786
 Na        13.3890180192       13.7184917171       17.8364770938
 Na         9.9066852806        8.4099651937       17.9649121509
 Na         3.0208620663        4.1884603721        3.6522290765
 Na         1.3420080926        7.3718556365        6.0178397119
 Na        18.7219560438       14.1798970780        8.7680610698
 Na         1.5824627571       13.5239395321        1.9343272567
 Na         7.5374765686       11.6409614469        2.8429081683
 Na        20.0500565352       10.0845607842        4.3342084696
 Na         0.4900018751       15.3046384443       12.0267062321
 Na        11.7910347721       19.1860280812        9.1138716109
 Na        16.8031547258        8.5150573089       17.4259206873
 Na         1.2203579163        4.1495975916       11.7334482039
 Na        16.5073568310       14.6644094242        5.3035149485
 Na         9.3636898680        4.4702315011        5.0117932961
 Na        -0.7452305196       13.3885707893       19.2053023786
 Na         5.6960633724        3.5141266548       12.3997769593
 Na         9.6035255418        9.3738548348       10.2039996691
 Na        10.3905992991       20.0355248681        4.5574662768
 Na        20.5639951286       19.7083704313        7.8047136967
 Na        16.2320095181       15.4619434340        9.4795722609
 Na        16.0617301453        2.7463416396        9.6683585679
 Na         3.7835752701        6.0591703605        5.9873224341
 Na        16.3336340052       15.9420066138       18.1165314208
 Na        11.2052193294       11.7783922644       20.1998723845
 Na         5.4740433490        1.6377111974       16.1492610757
 Na        12.2812384859        6.5141710360        5.9371399889
 Na         8.8950201253        2.7735155461       12.9872264968
 Na        11.4216949524       21.2671924944       18.1008318415
 Na         7.2385086705       14.2204540502        8.2230344330
 Na        10.6922424372        5.3854445614       18.9704390288
 Na        12.5984449631        6.3830501983        2.7479449404
 Na         5.8569838124       17.3970680431        8.7340306694
 Na         4.0485028554       14.6815740500       14.4571804902
 Na         1.6016305140       11.4632193613       18.0348553831
 Na        13.1401242198       13.5259318545        3.4721270073
 Na        13.5192190068        1.2913173064        7.0522974175
 Na        10.5214547615        2.5005945028        6.9711022373
 Na        -0.6548222063       20.1536359344       11.2169994106
 Na        17.2971610176        3.1547348173       12.4940056734
 Na        17.6317599707        5.1817009090       15.2097882559
 Na         9.9760615169       10.9902962397       14.8107949422
 Na        -1.5126257554       16.1149114809       15.2417644647
 Na         2.4286137570        0.9349181648       14.0057584703
 Na        12.9493222094       12.4069556982        9.3349644168
 Na        19.3536994215        5.3956870956        2.9716412085
 Na        15.2207394741       13.5276893860       15.1810225217
 Na         0.3616564300       16.4352911505       20.2879916441
 Na        15.9527117529       10.9014246041        3.7673360742
 Na         3.8646730238        9.4432541069        5.5689539089
 Na         2.9079429570       12.1540712570        3.9334319253
 Na         1.7236406469        4.1169452637       17.0799037470
 Na        18.6329994014        9.3050273624        8.2848923240
 Na        16.2332060417       10.5606479700       14.8238369081
 Na         5.7859614584        4.7582566009       16.3975505987
 Na        13.5981497664        6.7132989043       18.9910300088
 Na         6.2859783514        9.6067916622       -0.1927350650
 Na         1.2809266689       12.3808943954       10.0238018299
 Na         9.1559818433        7.5488044089        1.4108629541
 Na         2.1297784609        9.4985380529       12.3055356100
 Na         5.3088569495        3.7292876182        8.5244486530
 Na        15.3152434456       19.4475661194       16.8354393850
 Na        13.6523002962       21.0005426604       10.5869447045
 Na         7.0123268800        7.8624575103       12.2679049981
 Na         4.1089750817       10.2902705868       16.4972787506
 Si         0.6886375407        3.3413751823        6.2090020286
 Si         8.2072807018        4.2150697626        1.0727465746
 Si         4.6873810059       12.3106881222        0.6189579347
 Si        17.7216413312       16.8315661254        6.8261262618
 Si        17.3287744349        2.5359184038       19.8106557693
 Si         1.6828050393        7.7388875648        3.1867253847
 Si        18.2900202865       12.5008928541        3.2289725485
 Si         3.4619512973        1.6683345717        5.7529653508
 Si         6.3345038592        4.1482510970        3.5656640321
 Si         9.4808551747        1.7638621457       15.9921462374
 Si        17.8431581187        2.4078881641       16.7760322351
 Si         9.7903284899       18.0404978171        2.5708632677
 Si        16.3134972526       18.8443248643        5.0575240849
 Si        14.5697126546       12.8707822931       20.3884661665
 Si        19.1235232477       17.4540737432        9.6053792626
 Si        10.7104289903        3.4593611233        2.1137149000
 Si         8.6362092179       18.3789735009       19.2361506089
 Si        12.1624730971        6.4667265632       16.3473752646
 Si        17.5477230855        5.3332431525        9.6020099086
 Si        11.6478337685        8.8838455648        1.0886494922
 Si        14.9815498618        5.2079103424        4.5501447889
 Si         3.3018839494       17.2343092615       13.5137248987
 Si        18.1030247774       12.8437488041       16.1381839964
 Si         2.7371538324       20.6596001114       19.8095865271
 Si        13.9549704783       17.5718345386       19.8422537479
 Si        14.5008345371       20.2779933106       19.8672309069
 Si        13.7228075806       16.4372185755       16.9498338099
 Si        18.2975958317       18.7128395631       17.2445967464
 Si         4.7755031097       20.8165799582        3.0709988426
 Si         0.8387381953        6.9723597127       10.2690296993
 Si         8.2292545770       15.7742513107        1.2488537234
 Si         3.6493557646       18.3598908728       17.8949554884
 Si        18.2443940268       10.6196077778       20.2851988782
 Si         7.7252805868        1.8365808599       18.5980270550
 Si        19.4180130769        7.4419347824       16.8008588450
 Si        17.0183513869       14.8573331934        1.7928044209
 Si         2.5722222187        8.8328516523        8.6580902378
 Si        16.0641076206       11.5138762789       18.0523530545
 Si        18.9860285934        2.5969926098        9.0503105747
 Si         0.3812379514       10.1508406624       15.3257119813
 Si        15.7567201389       19.9914065301       12.7948928498
 Si        15.1862021519        5.0809696565        7.5428031661
 Si         3.3495050490        3.9726472332       14.6960837260
 Si        15.3910155216        2.7406838215       14.9730638727
 Si        -0.1283347617       19.4297358412       20.2756879993
 Si         1.2128310507       14.6898017802       17.1460076924
 Si         1.6262530161        6.7217336329       19.3549653526
 Si         7.2994346820        6.3672274801       18.4004641890
 Si         4.3766095255        0.8101265627        8.5069165473
 Si        16.1858046826        5.1167326092        1.7331110375
 Si        12.3912191193        3.4691645842        4.6521842593
 Si         2.8913162661       15.9690513872        3.8317832632
 Si         0.4212958375        2.9920757222       14.3868002778
 Si         4.6376106796        7.4230055168       18.7922993529
 Si        17.1688306303       17.2790286357       12.0925310929
 Si         5.4969139603       18.0023934113       15.5100727513
 Si         1.5346971822       11.2268223114        7.1959523828
 Si        14.9578693326       16.3692988603        3.2957191745
 Si         7.3232839085       19.8711126721       13.9134242687
 Si         2.0607180474        4.0264999922        1.0658197279
 Si         1.3846140016       17.4614483339       16.1158092665
 Si        16.6021442021        8.0741118376        1.2736228761
 Se         4.2767243137        8.3957664125       13.8858866554
 Se         6.4906578487        5.9268688881        6.9577327470
 Se         5.6709384735        5.7121678871       10.4154217733
 Se         8.5242207879        5.6602312531       13.0159795822
 Se         8.1774432180        2.8633524175        9.9931143026
 Se        11.3761450138        1.1351680957       12.3036453532
 Se         2.8322131539       12.5373210910       12.1553481119
 Se         6.5406584139       12.6790264688        5.4533892466
 Se         6.9632886877       10.1621991065        8.9052932432
 Se         7.4706328660       10.5078944573       12.9335959580
 Se         9.7530678038        7.0597521784        4.1996269159
 Se        10.1599358742        7.0192221653        8.7260965659
 Se        11.1524178404        9.1417932770       12.8854873088
 Se         8.2277460005       10.6823375192       17.0901749465
 Se        12.5791363960        5.0389824456       11.3652273810
 Se        15.7194346077        7.9948954050       13.6540290599
 Se         6.9906426601       16.3951291749        6.3256193839
 Se         3.9219167708       15.0181929555        8.6647163078
 Se         7.0885820790       14.7983106754       11.0973283678
 Se        10.1309586846       13.3701850362        3.7192650497
 Se         9.9913379691       13.5653793974        8.4930867428
 Se        10.8753284383       12.5130945887       11.4997243540
 Se         8.8468398529       14.2467811665       14.9789664128
 Se        16.4763073132        9.0358323213        6.3066998236
 Se        12.6895409905       11.4085005603        5.4041467663
 Se        15.2344096777       11.9668043097       12.5802466572
 Se        12.4984572425       12.1925828334       15.7025755211
 Se        13.2042413751        9.4199259287        9.5517584663
 Se         8.7273112202       17.8154730907        9.6899632298
 Se        11.6977416004       16.3193632836       12.9793818880
 Se        11.4585761002       17.7682222295        6.5377516663
 Se        13.3335205497       15.6339497704        9.3367455134
 Se        15.8991776991       12.7847444556        8.0018275665
 Cd         5.5354769807        7.8789376435        8.7378082483
 Cd         8.2266552245        5.2918179873        8.9610667487
 Cd         3.5806304684        6.3766625860       11.7942823922
 Cd         3.3470506408        7.1791770764       15.9788835661
 Cd        10.8605849863        2.9185630419       10.3022222472
 Cd         8.2942713795        0.7471785693        8.5229288703
 Cd         4.2015049707       13.7072219416        6.1412244605
 Cd         6.9217474172       10.0112001764        6.1511768526
 Cd         4.9283691897       11.2164954519       13.4624968555
 Cd         7.1201647777       12.3130351750       15.2753438113
 Cd         7.0754958622        7.2219220592        4.6544199482
 Cd         9.5252653694        8.4094007585        6.5637771272
 Cd        11.0243202020        6.4871620833       12.8005521584
 Cd         9.2178854820        5.4594591767       15.4808198683
 Cd        12.5734084110        6.7620517327        9.5384042263
 Cd        13.2550677165        8.3490741539       14.1687576273
 Cd         8.1477076697       14.6210096968        4.8292555304
 Cd         4.3655320251       14.4728272598       11.2116796634
 Cd         9.7066206949       14.6532802164       12.2391949591
 Cd         6.7288291139       21.3658348306        6.1378139761
 Cd        10.2251344415       12.2220369477        6.2299847162
 Cd         7.8627557654       12.2503453468       11.0204197176
 Cd        11.5358078246       14.8453182527       15.2739515701
 Cd        14.3553603606        9.7053136361        1.0951658191
 Cd        14.6579171023       10.6871702774        7.2085001205
 Cd        12.7147791565       11.5337612093       13.0763734235
 Cd        13.2899654829       10.1198545721       17.2042472181
 Cd        15.2060429875        9.3742546959       11.3220001349
 Cd         8.7106081930       18.1804727556        5.8583619580
 Cd         9.6394439869       18.6157097808       11.9735531591
 Cd        13.8949479871       17.8941008057       11.0657908875
 Cd        10.7328850971       16.0136779237        8.5224348835
 Cd        17.0583644769       11.7286992128       10.1376253387
