438
 i =     9000, time =    18000.000, E =    -10932.3602799562
  O         4.0541711142       16.1094915298        3.1809175009
  O         3.5206187886        8.8735451379       10.2295771812
  O        13.8489420132        0.8880967464        1.8818357168
  O        12.0528236055       15.5748315892       17.0017215030
  O         1.6381113126        7.2440518337        1.6279979439
  O        15.8372343220       16.2969272030       11.7804848729
  O         3.4713246408       11.3897831241       18.9333559756
  O        17.5938879948       15.5656775834       19.9777615774
  O        15.4084072303       14.0449538161       20.3679037171
  O         1.6511417870       15.5668071442        2.5824997056
  O        10.9374407820        7.4524269909        0.4607317643
  O        17.8724791838       13.5073232807        2.1827398524
  O        10.5888287758        6.4351713130       16.9005589478
  O         1.1244661147       14.4987011244       18.7941696101
  O        17.9810417773        2.6499772433       18.1956951754
  O        11.8859920965        2.0261927008        8.6631235812
  O        13.3686858922        1.1888936060       18.6031291754
  O        16.9282289937        6.2394241228        1.3372351066
  O        10.5848962061        0.9338030610       16.0603767643
  O        15.7610487985       19.4354478097        6.1168651662
  O         4.7236476174        8.2560490483       20.2099061410
  O         3.1577368797       18.6092289102       12.6299969054
  O         1.2055608268        7.9330258751        9.0552849869
  O        16.3977224873       16.3547529783        7.1689898033
  O        17.0506337754        3.7708722124        0.9872452053
  O         7.3365884806        6.0368525718       16.7214861935
  O        15.7170105131        1.7693699632       19.4620607892
  O        -0.3763055700       18.3382802724        1.9013471611
  O        -0.1994603700        4.2311346657       13.5444410116
  O         2.1760328614       17.2919225267       17.4146253752
  O        11.6749551632        3.7804723252        3.3557416001
  O         0.7364690668        2.2757876546        7.5056582617
  O         4.2713301933        2.5898630627       14.4158747562
  O        16.6665542340        4.5309365913       10.5050642273
  O         5.6540271994        5.3316856157        4.0100763761
  O        11.4418372832        3.9178639119        5.9027641033
  O         4.2790543861       18.7647004992        9.4527216570
  O        14.5780992598       15.3817025846       16.1063146929
  O        16.8772122939       10.9523239747       19.1972388615
  O        14.5373517005        4.8493895342       20.2499794895
  O        18.7917536564        3.3784664835        5.2908465702
  O         3.6180875961        8.1895569042        7.6284645930
  O         4.2487072920       17.2462204882       19.0472493100
  O        12.9025118358        7.7299331864       16.6789184962
  O         1.8229480485        3.2711737688       15.1806629541
  O        15.8562708852        4.5835729169        3.2610176597
  O        14.5345885397       11.7540448022        1.9406014629
  O         9.4071093986       18.8503421138       20.3232087789
  O         5.8970186461       19.6522525033        2.7410106725
  O        16.9784060671       18.6288365423       12.5720082179
  O         4.8911046511       11.9944356210       15.4622992281
  O         0.4195866808       15.7787460364       16.3278683578
  O        11.0852381963       18.2466661923        2.9830489975
  O        17.6054854277       10.9144575795        2.4027661446
  O         9.6070200411       16.3790327189        1.9339707941
  O         0.3652035994        1.7211463632       13.4360714425
  O         7.3091409992        3.1324357059        4.2207337559
  O         0.7948873715       18.5434537150        9.8925715935
  O        18.2929541731       20.8252518523        1.0354765249
  O         3.2897919518        4.6622876856        1.4191571709
  O        17.7020628752       13.5295555424       14.8130337678
  O         0.0986826464       13.1924187639       16.9197125423
  O        14.6463900667       12.2848468278       18.5945824979
  O         0.9257975454        7.3405763745       11.7164983837
  O         8.0072485402        2.5895050154       19.8356566583
  O         0.0272669319       10.9306502369       19.8027587820
  O         3.8320464067        1.9276191796        9.1798311140
  O         9.7091871477        3.3142262358       15.1745051685
  O         0.6107394403        7.4178960149       18.5669683417
  O        12.7977699835       13.4620419535       20.1627776956
  O         6.1423930028       18.7692897899       14.9009040338
  O         3.7154827723       12.4302948102        2.0643275140
  O        14.1857614073       16.2197621230       18.4957756037
  O         2.4970295895        2.6795367863       19.3295121189
  O        19.3584230212        9.6981154350       13.8359824872
  O         7.1241498043       15.3705090300        2.2261541408
  O         0.3723336515        7.5598191965        3.9570088855
  O        17.7600145421       17.6031478500       10.3180961783
  O         8.7038575572        2.3154129944       17.2961726045
  O        13.9394259537        6.1005716654        7.6641866810
  O         2.1726356834       10.4021335815        8.5871626106
  O         2.4136114779        9.2603822555        3.2539959612
  O         8.3517069413       18.3512801114       13.5673344783
  O         3.4082953303        0.4356857071        6.9393568092
  O        12.2745997495        5.9516133191       14.7939796107
  O        11.9717439713        9.9729754065       19.2465185936
  O        15.3277948635        8.2064984692       19.5315780412
  O         9.9382804136        9.7156908045        1.6225994325
  O         6.6455415354        0.9683951426       12.7224318718
  O         8.6539452763       20.3970156474        6.3348150530
  O         2.4774214366       11.6171997213        6.1233310135
  O         2.8868002543        4.6435888168       13.1430803434
  O         5.6985354209        6.0518673546       18.8569790253
  O         2.1728793701       17.1567695754        4.7325467698
  O        17.4726663078       19.9673282608       16.6243557052
  O         2.5835976046       14.2529482631       16.4237990986
  O        -0.8907773180       18.6652016667       18.7561672529
  O         1.5943290776        4.7212469385        6.2785312384
  O         3.8708989943       20.2330694241        4.3738068716
  O        15.0804176196       17.5268174264        4.2364092427
  O         9.2897549247        4.3014490883        2.0468711803
  O        12.3146061955       17.6911620765       19.5983075972
  O        14.2639830630       16.5893024689        1.8212558351
  O        16.8171606348       12.5893256386       17.1861356911
  O        13.7772534358        6.1974179489        4.2125613828
  O        17.2647034297        9.6163293565       10.1540961884
  O         4.7265389329        8.0834973265       17.4065232708
  O         1.1063027620        5.0095328820       19.4326253875
  O         0.4112584122       12.2546704383        3.5139483472
  O        18.5283225116        6.4836983563        9.8358544506
  O        14.8760791827       18.5474863882       19.5194517639
  O         1.6294291428       10.5214077824       15.9492183428
  O        -0.5951922823        2.8176678714       15.7671699065
  O        14.1205836397       19.4423132065        9.2370764019
  O         5.9078159903       11.3083862752        1.0504850148
  O         8.3861950959       18.3320416579        3.3490789917
  O        15.1528104105        3.6136944485        7.7293717261
  O         3.1203987471        6.5370587343       18.7572972956
  O         0.5224979327        9.7239159787        6.5181968163
  O        12.5215416063        1.5773830515        5.0126308004
  O        18.7145156296       17.6394522404        7.7786396443
  O         9.2598592830       17.8321959200       17.6625208993
  O        16.7621245912       19.6403745908        3.6102102889
  O        18.6779215976        4.1544769165        8.5949494449
  O        18.8623845934       12.8986129293       11.0842407948
  O         3.7936234726        4.8214994624       15.7616331197
  O         4.4997309866       16.9328857786       14.1429785745
  O        15.4144982203       10.2874764747       16.9870735866
  O        16.2936102825       15.3997517290        3.0721434363
  O        16.1621268596        1.3079054009       14.1706491824
  O        15.8159124121        4.0360821052       14.0242710187
  O         5.9383755513        0.8214126351        7.7316707334
  O         1.8630838908       17.3261084348       14.6177825211
  O         7.4941617989       17.1787037050       19.6631580533
  O         7.5909950789        7.8376587465       18.8011711918
  O        13.3163822974       17.7588947884       16.1896052699
  O         1.8210997134        2.1384256798        5.2170841787
  O        16.1294354030        2.8511128270       16.3770609794
  O        13.8522415734        3.6240945098        4.7571993449
  O        -1.0980604497       16.1826143055       12.6846632112
  O        17.8264499608        8.7328723093       20.4193643808
  O         0.3965489354       15.8171829184        9.5174451306
  O         6.1820539279        2.4682414994       17.8972337505
  O         5.9713226486       16.1658470328       16.1057829963
  O        17.1312540157       17.3572540802       16.7300360346
  O         4.3087431292        2.9049022536        6.0751263809
  O        15.9863615781        1.5680699440       11.5578149170
  O         2.9265508860        6.7316784523        4.1400027792
  O        18.0040393970       20.8723389091        8.8586596023
  O         0.0959725976       18.3278058474       16.2104867496
  O        15.8063282373        8.3413838613        2.7814978374
  O         1.8795163238        5.6450085375        9.9291593924
  O         1.3174311254       19.6623124821       19.9970842541
  O         0.3739023550       12.1202374794        7.7139632851
  O         6.6828324004        4.3565492380        1.8488140137
  O         2.8085232487       15.8980078475       12.4642651735
  O         3.5365193453       20.5236555675        1.6724667612
  O        11.2741038025        3.2702600426        0.6537658040
  O         3.3160797032       19.6475455023       18.4610734737
  O        16.6939528749        5.8648603726        8.1171610671
  O         2.5915359636       14.5259800756        4.9178743393
  O        12.3782016012        8.7606026491        2.2428162524
  O        12.9144080019        5.1456016256       17.3595571086
  O         8.8310318541       14.6862944458       19.4410439230
  O         6.1721198101        9.1373965389        4.6410892414
  O         7.6224807321       19.6450737283       18.6793486503
  O         8.1039978803        5.1986277624       -0.1478720026
  O        14.3342977525       19.0542719929       12.7861036531
  O         0.9627384871        3.3960878575        2.2840433917
  O        18.7688723222       15.4858571685        6.0855726032
  O         8.1249845212        1.1454185321       15.0344667411
  O         9.1151026940       10.3653952342        5.4592217398
  O        17.3432094076       12.3903049801        4.6478884520
  O        18.0090715698        6.4647314927       16.9565848561
  O        19.0698462654        8.6999430499       16.2729643259
  O        13.8874520222        2.4691888486       15.2732763461
  O         4.3817168818       18.4337825060       16.5928565087
  O         0.6120515047        2.4947932029       10.2107925474
  O        13.8986308300       15.1853348669        4.1670387479
  O        17.6103258209       17.6633326434        5.2053293766
  O        15.7899749800        5.3020509740        5.8183428318
  O        10.2147964785        1.7780120291       22.0487243909
  O         4.8819794440        2.8749252364        3.0846939580
  O         1.1610072305        6.4225432725       16.1086192903
  O        18.4202438432       11.1265160469       15.6785575076
  O         5.1144900612       13.7463255766        0.0798084686
 Na        13.4013780535       14.3211441673        6.3171830508
 Na        -0.7436636772       19.3834123801       14.2186524203
 Na        14.1255489517        3.2964274458       17.9747830857
 Na        14.3028361337       17.4227676058        6.9901709854
 Na         4.2508678521       13.0339530751       17.4329502334
 Na        13.2373905705       18.8391518384        3.6404756384
 Na         5.0759843899        3.9936604518       19.4528904835
 Na         1.9329532588       18.5098305882        2.7968561669
 Na         5.9234260401       15.8659046612       18.3580957629
 Na        18.6881210802       21.3906990416        3.3838818796
 Na        19.3590895227       16.5135388035        3.8605605286
 Na         3.3521423983       15.3007496755       20.2084597208
 Na        14.7395169299        5.3941637704       15.6436726322
 Na         2.2686165373       20.2868088449       10.7634075615
 Na        11.3817410893       18.4623373750       17.5731500356
 Na         7.3989547282       16.4228289141       13.1873795801
 Na        13.3774869285        3.1724101421       21.1914466495
 Na         5.1744869040       -0.2719193598       11.5631252372
 Na        20.0686711094       13.3386955352        5.6164770327
 Na        11.5565139145       19.7910523949        1.2717095924
 Na        17.2029263176       14.1982101061       12.4301458284
 Na         2.2116435821        9.8750479247        0.9384554949
 Na         4.7995253003       10.8748407530       10.2322187024
 Na        11.8619402145        3.5211598424       14.6255608920
 Na        12.5401023355        3.9842324668        7.9539879364
 Na        14.3531217734        8.3554497230        4.5553104402
 Na         0.9973564842        6.2077206441       13.8503032438
 Na         2.6369602657       12.3784033279       15.1355026094
 Na         4.2719770485       17.9638092357        5.0952692677
 Na        18.2365848078        5.4680397741       18.9352932419
 Na        11.3838300556       15.6309748616        0.2327271835
 Na         1.4895812341       16.0854294495        6.6883916414
 Na         8.0772797924       20.4781373002        2.3481219638
 Na        15.1443007686        1.7390483708        3.5425815542
 Na        19.1338189996       11.8666227842       13.1525426833
 Na         9.1407668152       15.4550874656       17.3034751860
 Na        16.6944036636       18.0497425760       21.0348478669
 Na        12.4566788932       19.7146714141       14.5820726851
 Na         2.6097973557       17.2536464478       10.3140187259
 Na        14.5922494511       17.0743230374       14.1407677295
 Na        13.6387558374       14.5968579511       11.8473132423
 Na        18.2550245295        8.6375991066       12.1962537329
 Na         4.8803100288       10.0063011375        2.6079679414
 Na        14.9536379597        5.0246442798       12.3313076617
 Na        10.5719169976        9.7655741489        3.6945675260
 Na         6.7357841345        8.1125199154       15.9534517457
 Na         5.6414394023       18.9056134960        0.5839295263
 Na         7.4005378858       12.9324215707        0.2018643720
 Na        15.8199099947        8.0825724856        8.8791478611
 Na        11.4620984641       15.9868238723        3.9054837993
 Na        16.3776991985       19.1185454235        8.7260621058
 Na         5.1197673172       14.1581589732        2.8805999767
 Na        16.8898155031        2.3204213645        6.5256645426
 Na         9.7316516556       17.9712447897       15.2851953213
 Na         6.1445834244       17.3726904286        2.9632451243
 Na         4.4722607046        6.3371973723        2.3435890080
 Na        18.0192878715        5.2825111949        6.2845316367
 Na        17.9506920894       11.3141055031        6.7723683614
 Na        17.8266068887        8.3289370580        3.7162124310
 Na         2.6387543748        4.2672604389        8.3459527188
 Na        12.9224265470       13.6706499924       17.7494175489
 Na         9.8056537697        8.3171172415       17.8397387841
 Na         2.9323029029        3.8504666561        3.7994423753
 Na         1.4902594298        7.4042256289        6.1277128549
 Na        18.6988742640       14.2012186429        8.4804714379
 Na         1.5873919376       13.3756275727        2.0719786393
 Na         7.8354274406       10.4942602939        3.0113614717
 Na        19.9882464580       10.0867264081        4.2942970606
 Na         0.6241137953       14.9899404529       11.6284282252
 Na        11.8704285226       19.0891046817        9.1003051643
 Na        16.7910723540        8.4029194638       17.7372324706
 Na         1.4842293197        3.9638147203       11.5786948729
 Na        16.8691337217       14.4509415623        5.3108569281
 Na         9.3032054896        4.2254685800        4.7661501599
 Na        -0.4736927903       13.1675497378       19.5985994511
 Na         5.6723301468        3.1552566903       12.7015725518
 Na        10.0045466791        9.7463164234       10.1659065517
 Na        10.4437946736       19.8607815223        4.4521418092
 Na        20.4619987121       19.4114021779        7.7054972100
 Na        15.9408513787       15.6196739820        9.4215666669
 Na        16.1843650438        2.5198815175        9.6228198426
 Na         4.0892366942        5.5141811836        5.7815596496
 Na        16.3468442997       15.6661487613       18.1226457390
 Na        10.7023577413       11.8007372177       20.1812422729
 Na         5.2400146816        1.4671209197       16.1778367552
 Na        12.1784090629        6.0163529777        6.0695399668
 Na         8.7007876954        2.7618216568       13.0971669365
 Na        11.5688319521       21.7383021445       17.7911466393
 Na         6.7904030142       13.7296811078        8.2519432428
 Na        10.5315603424        5.3173592927       19.1608046912
 Na        12.1504974415        6.3846499879        2.6908221712
 Na         5.5858245827       17.0853344144        8.6202352807
 Na         4.7056928501       14.5852159118       14.7470120648
 Na         1.2374847014       11.4054442671       17.9557446240
 Na        12.9131299779       13.4083767590        3.3391297003
 Na        13.8129599685        1.2352542596        7.0988563597
 Na        10.5105425080        1.8706112241        6.9393778855
 Na        -0.7101463871       20.0538217556       11.0856850890
 Na        17.4802323048        3.5476398537       12.2598391564
 Na        17.7251695407        5.0486201494       15.1846355801
 Na        10.0144099337       11.1650898946       14.6144569399
 Na        -1.4440191934       15.8064081005       14.9639378155
 Na         2.6026030122        0.9171995938       14.1443695828
 Na        12.3114149131       12.6560529517        9.0288771639
 Na        19.3791986756        5.2744129066        3.4938817844
 Na        15.1648560187       13.4535553113       15.3641625053
 Na         0.3128431245       16.3703065093       20.1814116642
 Na        15.3582665297       10.8932262867        3.9012916579
 Na         4.0687631990        9.0862434390        5.3103926038
 Na         2.9532211779       12.0245105736        4.0243913517
 Na         1.6317397500        4.1216092181       17.1681245564
 Na        18.8503494865        9.3370570744        8.6374437896
 Na        16.1600602344       10.3574311244       14.7992399594
 Na         5.9194157410        4.2965158792       16.3082205711
 Na        13.5219010941        6.7486682826       18.9571944545
 Na         6.3091180078        9.7736064107       -0.4371625648
 Na         1.3673129503       12.4760723647        9.7934415344
 Na         8.7323138209        7.5245959370        1.3426730455
 Na         1.8234575825        9.1869527414       12.2533350222
 Na         5.4414860294        3.4781743953        8.6125441575
 Na        14.8682109320       19.2791601394       16.8772365860
 Na        13.5589909337       21.2385771380       10.5312967524
 Na         7.1935571591        7.7637332535       11.8950553560
 Na         3.7508081171       10.2520158835       16.7569047975
 Si         0.8268147352        3.2058530542        6.1456438079
 Si         8.0201952746        4.1149794200        0.9963784946
 Si         4.5820646577       12.2246877245        0.6435413141
 Si        17.8333768471       16.7673946179        6.6912296233
 Si        17.2376217104        2.3775137129       19.6502650292
 Si         1.8973057269        7.7414364191        3.3268788468
 Si        18.2301282208       12.3165281771        3.3077362203
 Si         3.3678128647        1.6224164729        5.7782165458
 Si         6.1814370221        4.0276892176        3.3832990273
 Si         9.3216661991        1.9046031118       15.8744736987
 Si        17.5837392385        2.1746181623       16.6324891799
 Si         9.6257597228       17.9403351773        2.4061415716
 Si        16.3060117469       18.6431424670        4.8035502357
 Si        14.2584751992       12.8172363545       20.1702742326
 Si        19.1553944438       17.3380575460        9.4699342812
 Si        10.6086057968        3.1871325403        2.1270218740
 Si         8.5846432301       18.2513885787       18.9887427339
 Si        12.1336915531        6.2758951716       16.4280906139
 Si        17.6368690215        5.1982665599        9.3577511591
 Si        11.1978410400        8.9072400479        1.0460300371
 Si        14.7904107503        4.9892369679        4.5223000762
 Si         3.0511458548       17.2349796273       13.4022309366
 Si        18.1605065379       12.6690536964       16.1107763731
 Si         2.6495608301       20.5140717531       19.7130299688
 Si        13.8451746402       17.2590787728       19.7438465950
 Si        14.3972652999       20.1560055267       19.7516714114
 Si        13.4985141227       16.3133678418       16.8344611169
 Si        18.1453947234       18.4834345973       17.1523656008
 Si         4.6801664614       20.6239287624        2.9495804209
 Si         0.7894682022        6.8144353564       10.1597958009
 Si         8.2193091932       15.7680019466        1.1212905995
 Si         3.5133836405       18.0984244184       17.9147137722
 Si        18.0110190447       10.3935077250       20.2979124150
 Si         7.5976780944        1.8907611454       18.3737359103
 Si        19.4520999319        7.2283495908       16.9869818578
 Si        16.7710397435       14.6400370077        1.6587019603
 Si         2.7459003111        8.8147542709        8.8608525580
 Si        15.8919823091       11.4788939447       17.9465793931
 Si        19.2056674242        2.5332787469        8.8638625925
 Si         0.2475826323        9.9346774879       15.3863362286
 Si        15.7411646667       19.8872244172       12.7499618656
 Si        15.2451363696        5.2120056735        7.4434697230
 Si         3.2871360465        3.8509260569       14.4597167917
 Si        15.3917206737        2.6757258233       14.8071497718
 Si        -0.3130520513       19.3617018511       20.1197434686
 Si         1.2401210120       14.5341948173       17.2182849328
 Si         1.6541988524        6.5726611710       19.5104274717
 Si         7.2404441221        6.3891286765       18.3164206113
 Si         4.4137473952        0.6537563015        8.4630985850
 Si        15.9614401618        4.9666168461        1.5984868763
 Si        12.2893001348        3.1313123369        4.8050817753
 Si         2.6463044878       15.8500575747        3.8869307898
 Si         0.3839739318        3.0212609265       14.3717873775
 Si         4.5960947995        7.3458549057       18.8559947949
 Si        17.2541186616       17.0797798352       11.9119387261
 Si         5.2963976075       17.4706124483       15.5492542484
 Si         1.3832660970       10.9658130506        7.0985872103
 Si        14.7858189707       16.1192050876        3.2878107754
 Si         7.3019195862       19.4988055633       13.9995747304
 Si         1.8989153210        3.9714015334        1.1303043603
 Si         1.2344577405       17.1785159850       16.1307342932
 Si        16.3784459826        7.9550118569        1.3547587808
 Se         4.0454714233        8.1670940235       13.8678154218
 Se         6.8829887965        5.6694682624        6.8614098687
 Se         5.8265254008        5.6195247926       10.5011080100
 Se         8.1984023429        5.6097881251       13.2327498715
 Se         8.0422326276        2.7058832122        9.6781390697
 Se        11.0663992982        1.3234539974       12.2677273865
 Se         2.9471152828       12.0919124561       12.2482315536
 Se         5.9967442122       12.6039552632        5.3899390144
 Se         7.1755840426        9.9235663007        8.9436641189
 Se         7.4008461342       10.1528048374       13.2620246502
 Se         9.6648007690        6.9782748881        4.3131332232
 Se        10.3133459267        7.1810159861        8.6510393490
 Se        11.0212123350        8.7949861803       13.0438321376
 Se         8.6924471487       10.9835734979       17.4036230089
 Se        12.2563955433        4.8119458657       11.1799057608
 Se        15.5311088776        7.7803107918       13.4407560542
 Se         6.6981407307       16.5138755284        6.0709691423
 Se         3.7846615819       14.7011587077        8.7562315664
 Se         7.0052517177       14.6293090566       11.1606117585
 Se         9.9830858996       13.4498663444        3.5088588233
 Se         9.6578012522       13.3788988433        8.0982901555
 Se        10.6606752731       12.2038427728       11.3604910097
 Se         8.6347344261       14.1428290967       14.4584263081
 Se        16.4237906616        9.0511130893        6.3745308510
 Se        12.8288095371       11.4057034148        5.5647192157
 Se        15.0208574861       12.0830483948       12.3616989962
 Se        12.4551233093       12.1348381205       15.5017870231
 Se        13.3559837995        9.4995920114        9.7009436909
 Se         8.2382161259       17.5298029362        9.8863507176
 Se        11.3791162167       16.6038032063       13.1804398403
 Se        11.0828390740       17.6297982630        6.2520963650
 Se        12.7843882503       15.8019668162        9.4281748942
 Se        15.6991949839       13.0056169630        8.2911539525
 Cd         5.6877229393        7.5969584160        8.7017180931
 Cd         8.6277227959        5.1409511485        8.6146727494
 Cd         3.5500128441        6.6023742910       11.5449035774
 Cd         3.3126291654        6.9472094239       16.0368435762
 Cd        10.6695893411        2.8444310038       10.0290360502
 Cd         8.1074869265        0.3177011594        8.2465113775
 Cd         3.8507983813       13.4620206245        6.4847361643
 Cd         6.9388777342       10.3101856685        6.4315900414
 Cd         4.8873020714       10.6643312765       13.6104187900
 Cd         7.0424246426       12.0621902372       15.7313682278
 Cd         6.9313274730        7.2421914721        4.6418937264
 Cd         9.8209748988        8.6157626786        6.4829563552
 Cd        10.6918904447        6.2553020407       12.8581884402
 Cd         9.1109973201        5.3845915282       15.6362631789
 Cd        12.7533326766        6.9744403257        9.5472181028
 Cd        12.9941624103        7.9569291971       14.2668566300
 Cd         7.7516086933       14.5440146966        4.5127314506
 Cd         4.1638512152       14.3021811867       11.4499882991
 Cd         9.9962386272       14.7423646173       11.7782826632
 Cd         6.6729750525       21.5231663796        5.9622053890
 Cd        10.2250485269       12.2552176235        5.9585884534
 Cd         7.7551634458       12.3561116241       12.0562352028
 Cd        11.3338480877       14.7322650769       15.0252619960
 Cd        14.0701340415        9.7961385838        1.2697243051
 Cd        14.5731137168       10.6813869995        7.4158966787
 Cd        12.6712417845       11.2237583221       12.9036049452
 Cd        13.0022189414        9.9998514857       17.1541903459
 Cd        15.4048883479        9.3451408352       11.3034452025
 Cd         8.6192811963       18.2181709227        5.5740161428
 Cd         9.3330512701       18.9532373327       11.6768334448
 Cd        13.8842751293       17.8717704963       10.8435601756
 Cd        10.5048830156       15.8191799985        7.8838244552
 Cd        17.2814142931       11.7845159864       10.2852401717
