438
 i =     6000, time =    12000.000, E =    -10932.3133082093
  O         4.0826130724       16.5626715452        3.2563287241
  O         3.4298479415        8.6027941517       10.3034431690
  O        13.9062663095        1.3595281435        1.9379212309
  O        12.0842563009       15.9303812181       16.8743625331
  O         1.8099849123        7.5469288846        1.4254627953
  O        15.7991000785       16.4923653755       11.8527116799
  O         4.2817667643       11.6136484290       18.5647093783
  O        17.5544747408       16.0277538397       20.0127727826
  O        15.6724885708       14.0804561442       20.3014679704
  O         1.5395181812       15.7987881920        2.4432769800
  O        11.2198727094        7.2360431171        0.9519101378
  O        17.9868493867       13.8724340673        2.2292098055
  O        10.7619091893        6.3915562680       17.0505929628
  O         1.5000999287       14.5398726769       18.7705529228
  O        17.6885660896        3.3515285677       18.3458026330
  O        12.2559897750        2.1073786226        8.4957494322
  O        13.7915482656        1.5980244391       18.6122632273
  O        17.1912053273        6.4902959649        1.2946687754
  O        10.7038773004        0.5664193728       15.7565424119
  O        15.6483480983       19.5217617476        6.2472085357
  O         4.7852689227        8.3061944557       20.0880295774
  O         3.0645823199       18.6180721971       12.3889013799
  O         1.1047778284        7.9470275035        9.1173063378
  O        16.3522986361       16.4095024947        7.2072364245
  O        17.4347528323        3.9198780336        1.5183064746
  O         7.5114567083        6.0300098209       16.7377248209
  O        16.0805921856        1.8663279005       19.9915797648
  O        -0.4781779045       18.6769408287        2.0578804509
  O        -0.2655890747        4.3249651912       13.8481594714
  O         2.3316489724       17.8287143503       17.2471712870
  O        12.0432068042        3.8519152734        3.0181917582
  O         0.7403047102        2.7574004310        7.6606310462
  O         4.3733609889        3.0586230715       14.2452988689
  O        16.6666594022        4.8541240882       10.7058735644
  O         5.4101194470        5.2939849755        4.0436712000
  O        11.5238355753        4.0936008857        5.6751515801
  O         4.2907562478       18.7784264059        9.4042344064
  O        14.3853042049       15.4820139877       15.8142793272
  O        17.1118115385       11.4342092386       19.2164833934
  O        15.0529792179        4.8572934114       20.0048466499
  O        18.9773216847        3.6461657742        5.2876029083
  O         3.2811381574        7.8515031142        7.7285786757
  O         4.7353494662       17.4991418488       18.5543152177
  O        12.9583929932        7.7791275923       16.7895551894
  O         2.0220407516        3.3440237322       15.2749903802
  O        16.0005028067        5.0783682592        3.2545932089
  O        14.5918072077       11.9124809237        2.0689985667
  O         9.6326278883       19.0102506492       20.3302239172
  O         5.8021062560       19.6593870504        2.8244072804
  O        17.2184775381       18.7860911434       12.6976170422
  O         4.9397473102       12.4404159253       15.1048665758
  O         0.6485858305       16.0882459585       16.5651171049
  O        11.4721921438       18.1252698217        2.8266761869
  O        17.8249794085       11.1659808413        2.4192906551
  O         9.7532836293       16.4371167339        2.0661644711
  O         0.7102940253        1.7930816233       13.6088137029
  O         7.2509651683        3.1934838684        4.2046338983
  O         0.7663498973       18.8095896539        9.6370212459
  O        18.6578131342       21.0496889634        0.8638868775
  O         3.4584724445        4.5119592209        1.3277579189
  O        17.6801426912       13.8226169631       14.8215048745
  O         0.0154663711       13.5665880301       16.8245238038
  O        14.7453875318       12.2121085688       18.6675828277
  O         0.7588270755        7.4358367876       11.7369628519
  O         8.0558325825        2.6194557934       19.8887756858
  O         0.1910993781       11.1276898334       19.9027735545
  O         3.7874006288        2.0649569105        9.2802876898
  O        10.3957293340        3.1716197621       15.4989974940
  O         0.5564654384        7.2288845190       18.3728659018
  O        12.9835841669       13.5016724341       19.9435459459
  O         6.0573801357       19.4446282086       14.3608405645
  O         3.4056265141       11.7328126232        1.7075583931
  O        14.3959776725       16.4613055030       18.3429282346
  O         2.3329497621        2.6271058693       19.2823363764
  O        19.5077651126        9.6283093184       13.8271743024
  O         7.0958769285       15.6567960188        2.3309966095
  O         0.1654423998        7.4700145529        3.6313145987
  O        17.7785131590       17.6111267921       10.3235667394
  O         8.9691759962        2.2144416389       17.3359755682
  O        13.8692534781        6.2647363021        7.4743087080
  O         2.3886112565       10.2325309323        8.4446226489
  O         2.2625711820        9.2797967542        3.4413962852
  O         8.2455701580       18.6162531337       13.3892806747
  O         3.3674287366        0.6643915236        7.0193377441
  O        12.3364830585        5.8433739352       14.8873956869
  O        12.4518618420        9.5071354338       19.2936599748
  O        15.3848441559        8.1931385336       19.2896378687
  O        10.1890753613        9.7263891269        1.3272575623
  O         7.0963539548        1.5412482588       12.4420655223
  O         8.7711548508       20.5413386782        6.3882742694
  O         2.7058997894       11.4260437894        6.1054832367
  O         2.8189865519        5.1864219326       13.4393142453
  O         5.7770308649        6.2668733416       18.6185520082
  O         1.9016100916       17.1600316814        4.7401902524
  O        17.6077502413       20.3480308393       17.0230474972
  O         2.5049308681       14.3456806452       16.2246028580
  O        -0.7623115710       18.7692918899       18.7283410689
  O         1.6924952810        4.9616309414        6.2704437488
  O         3.8020624669       20.1727237935        4.4637078085
  O        15.2888603378       17.9558894374        3.8977382973
  O         9.4802772062        4.4382398504        1.9717482518
  O        12.4649588945       17.9164788076       19.4047782797
  O        14.3184106434       16.8976322269        1.6293320798
  O        16.7522907905       12.9342758576       17.0386210134
  O        13.7754567011        6.4515221393        4.1357898001
  O        17.2931567231        9.8129065243       10.3894035519
  O         4.7014159200        8.4655920444       17.4629277348
  O         1.1059832014        5.0926819388       19.6345282903
  O         0.5639722240       12.5192947803        3.3052389498
  O        18.4841538395        6.7353120801        9.8125722365
  O        15.0530997032       18.8920105394       19.5391415935
  O         1.7207847366       10.5527936389       15.9275420541
  O        -0.2929874832        3.0675013862       16.0715832179
  O        14.3147810599       19.1368488513        9.4033122777
  O         6.0769438029       11.4232678651        1.2594007813
  O         8.8743334360       18.5143011791        3.4937281959
  O        15.1793644669        3.7327733538        7.6363887803
  O         3.1061678068        6.7020524071       18.6453785247
  O         0.5753352335        9.8036796250        6.5382216457
  O        12.4838031357        1.7434232905        4.8657427663
  O        18.5935628565       17.7443139142        7.7576705128
  O         9.3540584162       17.7976764601       17.8675357355
  O        16.9600553889       20.2202743830        4.0463700909
  O        18.4037683709        4.4210032376        8.5639331140
  O        18.5412315199       13.2538240411       11.0049491616
  O         3.8575522276        5.1113288916       16.0653978501
  O         4.4943402065       17.2221159403       14.2359386623
  O        15.6024402525       10.3967933484       17.0577446994
  O        16.2629640046       15.7011237395        3.0417584347
  O        16.2921752030        1.2470145648       14.3152773499
  O        15.6616178527        4.0176938471       13.9178572775
  O         5.9771486157        0.9540343437        7.9370155530
  O         1.7998789323       17.5327878741       14.5799051704
  O         7.6455344287       17.3915852836       19.8912776900
  O         7.9969690412        7.8654614949       18.7104796209
  O        13.6225831054       18.1113269840       16.2248533627
  O         1.9459930260        2.4174990228        5.4525698869
  O        16.3957915455        3.1598750379       16.1873542904
  O        14.1165503800        3.7778384433        4.5154799003
  O        -1.0051564733       16.4281625814       12.8719354506
  O        17.8729170101        8.9837366817       20.1939548556
  O         0.6028018740       16.1089871048        9.5715641439
  O         6.3796071640        2.5994311469       17.7976064572
  O         6.6625255911       17.2640007958       15.7084877900
  O        17.0137052320       17.7139674343       16.7492550338
  O         4.4744736137        2.9804329725        6.0799900876
  O        16.3700855269        1.5495716656       11.7223066044
  O         2.7144590989        6.6421169112        3.8527054853
  O        17.8804950922       21.0413432403        8.6976440370
  O        -0.0178691094       18.5877846839       16.1827474821
  O        15.8385874444        8.6821198891        2.4932396153
  O         1.5772871038        5.4177339420       10.1802096471
  O         1.4853600387       19.5929518929       20.0621010715
  O         0.6118127723       12.1853916670        7.5740384596
  O         6.6988804973        4.3374605782        1.8993949319
  O         2.9104907139       15.8886555770       12.5137922273
  O         3.6496448954       20.3329172455        1.6160809713
  O        11.3021054864        3.3144288129        0.5287220590
  O         3.5801583531       19.8092615949       18.4662988996
  O        16.4832798632        6.1290037902        8.1521565072
  O         2.7971138679       14.5342421935        4.4924826066
  O        12.5673128161        9.0830236174        2.6169443732
  O        13.1107385931        5.1076176640       17.3066021534
  O         8.6968707972       14.9118675468       19.5311199086
  O         5.9502341587        8.9864365309        4.3996923173
  O         7.5997687061       19.7636839867       18.8213950746
  O         8.0597264029        5.3460749839       -0.1117199224
  O        14.5822821291       19.0673727607       12.7905366192
  O         1.1818661107        3.4199612783        2.4320534942
  O        18.7302070112       15.6634067919        6.0802117368
  O         8.1753558159        1.4160940264       14.9923249982
  O         8.9848808458       10.5216897120        5.5511919040
  O        17.5772101485       12.6872268485        4.5766519683
  O        18.0501881554        6.3766976761       16.6918588163
  O        19.0152085725        8.8719190234       16.3906899966
  O        14.0369833816        2.1579221117       15.2938563067
  O         4.4552156714       18.9396586766       16.2096938643
  O         0.3407935181        2.6829992172       10.3364881807
  O        13.7524005731       15.5965897607        3.9268500932
  O        17.5706376473       17.9072233553        5.3141628967
  O        15.7682599522        5.4504756964        5.7214455743
  O        10.1464089304        1.9794484629       22.0838959198
  O         4.7860744431        2.8785444836        3.1372011997
  O         1.2327245438        6.7742080706       15.7394901541
  O        18.5008833786       11.3292678099       15.5470485472
  O         4.7089184682       13.8301067619        0.7006338610
 Na        13.5984346096       14.5644927309        6.4633187370
 Na        -0.0848199377       18.9119781527       13.8037198148
 Na        14.8810369729        3.7314776046       17.9498283170
 Na        14.3262230574       17.7372283128        7.2656669469
 Na         4.1020571669       13.9070811505       17.8783745239
 Na        13.4606448454       19.4698953055        3.6423722261
 Na         5.2039206038        3.8548341290       19.3858778187
 Na         1.9730847332       18.6886762956        2.8930978123
 Na         7.1488902045       16.4946584965       17.7083086627
 Na        18.9371705118       21.5431059109        3.3051817854
 Na        19.0638362287       16.5974474589        3.7797158229
 Na         4.2352554177       16.2217621062       20.2590908782
 Na        14.6811100998        5.3091114289       15.4272425455
 Na         2.0651252385       20.6070221361       10.3734638726
 Na        11.5138867282       18.5784911603       17.4620911563
 Na         7.5968844263       16.5681659649       13.0624338436
 Na        13.4113109927        3.5281912975       20.7341221294
 Na         4.9781865156        0.0141790297       11.3873695161
 Na        19.9951106907       13.9151457833        5.2549500073
 Na        11.7713400493       19.9311309854        1.0740036388
 Na        16.8871798395       14.2840923205       12.6204871562
 Na         2.1618138820        9.9457593277        1.2253408460
 Na         4.3223725035       10.7483810942        9.9228121727
 Na        12.2821127873        3.5079291365       14.7161718044
 Na        12.9130803312        4.1635382198        7.6443202773
 Na        14.0834736813        8.6022382318        4.4857920434
 Na         0.8052533443        6.3525951898       13.6776718105
 Na         2.4728031210       12.3822415429       15.0015918398
 Na         4.2351861030       17.8378016279        5.1946020966
 Na        18.3345284290        5.7571212732       18.8266169762
 Na        12.1930826345       15.5561484111        1.8127483211
 Na         1.6522727786       16.4424887771        6.8849589035
 Na         8.0994972887       20.6633823992        2.8845433490
 Na        15.5793376399        2.4274989956        3.2176170113
 Na        18.7477958637       11.7079120393       12.6567626455
 Na        10.5207284290       15.7428473202       18.5254537590
 Na        16.6885832410       18.2311746700       20.7958343688
 Na        12.7894585900       19.7268406400       14.6456301981
 Na         2.6595332004       17.4402853660       10.3422250748
 Na        14.8761083549       17.0951866498       14.1388099061
 Na        12.7930704529       14.5063666999       11.8832151495
 Na        18.2554962885        8.6192607146       12.0389817606
 Na         4.7833606759        9.7058591703        2.3610809753
 Na        15.0794588655        5.5607301630       12.2260027673
 Na        10.6962983371       10.0922856761        3.7494143103
 Na         6.6188933430        8.0841451298       15.7339845641
 Na         5.9225441208       18.7866623413        0.6705628846
 Na         7.2707952215       13.1973144692        0.3945386602
 Na        16.4096021913        8.2330248021        9.0533389534
 Na        11.3133025886       16.1064302393        4.3744134056
 Na        16.4226702618       19.0855686402        8.7453518471
 Na         4.8593830337       14.2024163502        2.9739655147
 Na        16.9678256725        2.1036568339        6.4336527374
 Na         8.6089191223       18.2857766013       15.6870863825
 Na         6.3429200395       17.4809827783        3.1876608131
 Na         4.4492205102        6.5063558737        2.0788396652
 Na        18.1211338260        5.4387115696        6.3844559936
 Na        18.1538980558       11.3553848126        6.3859732786
 Na        17.1490259449        7.6921838162        4.1120045596
 Na         2.4828227371        4.0294351645        8.7315605522
 Na        13.2657726836       13.8827026318       17.4959193410
 Na        10.0932350392        8.6039255601       17.9220016657
 Na         3.2053791974        4.3620747166        3.8826570759
 Na         1.5792287053        7.2858879667        6.2592872127
 Na        19.1259361873       14.4717301328        8.2812913861
 Na         1.8739290312       13.5468767849        1.5135108889
 Na         7.3342771565       11.0264506979        3.1427646616
 Na        19.6074599113        9.9656604608        4.3147669119
 Na         0.3852924345       15.0936097103       11.5762723194
 Na        11.8125629333       19.2214534949        8.9671094341
 Na        16.7323613261        8.3828713504       17.4801964613
 Na         1.6390561069        3.8669368723       11.8747821033
 Na        16.5759152795       14.6075814744        5.3280813682
 Na         9.4865240172        4.3607715118        4.6435520258
 Na        -0.5802300557       13.1750448452       19.2188329735
 Na         6.2384707305        3.6861164069       12.8614214532
 Na        10.4411277946        9.9437889104       10.4878833110
 Na        10.5945990904       19.9791480115        4.5125433744
 Na        20.0051698724       19.9420800474        7.3986631135
 Na        15.8667629622       15.6596203117        9.3889084410
 Na        15.8287641951        2.6839785852        9.7574876776
 Na         3.8395294590        5.5486793020        6.2122610686
 Na        16.3986801529       15.9944387998       17.9999729011
 Na        11.2220845977       11.6235203710       19.6926973488
 Na         5.4520336210        1.5252492320       16.0182075211
 Na        12.1455810047        6.4666980453        6.1193850304
 Na         8.8187865157        3.0293687990       12.5591526494
 Na        11.9638189898       22.0735567779       17.8947153167
 Na         6.9768795209       14.4637452495        7.7207276623
 Na        10.7522708792        5.4558161437       19.0437050019
 Na        11.8587874386        6.1844753186        2.8729721578
 Na         6.0302592358       17.2733002022        9.0043814855
 Na         4.2879470631       14.8872889713       14.6422589982
 Na         1.7264699416       11.2037444908       18.0437908940
 Na        13.0605622305       12.8513916642        3.4567433872
 Na        13.8046244319        1.2141165512        6.8523067939
 Na        10.5370593021        2.4613294228        7.1390698212
 Na        -0.8592481494       20.1341518178       10.8392520444
 Na        17.5960891409        3.3878217929       12.3913060065
 Na        17.3499153798        5.2878186728       14.9433761010
 Na         9.6500229336       10.2595906069       14.6157267317
 Na        -1.3127987744       15.9746564291       15.0348223757
 Na         2.9479297252        1.3481537625       13.9756330553
 Na        12.6494366419       12.5509451632        9.0382728604
 Na        19.4155496885        5.2989361356        3.1513625635
 Na        14.5190104116       13.5448581430       15.0252725094
 Na         0.5303220213       16.4757222014       19.7303607570
 Na        15.9070217802       11.1348535461        3.8081274105
 Na         3.7088584038        9.3270508933        5.4243094323
 Na         2.6325241250       11.9169624907        3.7587058018
 Na         1.7518716540        4.4260998484       17.4303118096
 Na        18.9194852058        9.5804027786        8.7447807257
 Na        16.5488494128       10.5090674558       14.9377678802
 Na         6.0234482436        4.5169056367       16.1991408095
 Na        13.5623866941        7.0786998200       19.0633157681
 Na         6.3161122668        9.8133250150       -0.4001231479
 Na         1.6193480341       12.5734044833        9.7026891223
 Na         8.8773353957        7.7289784887        1.4720559917
 Na         2.1706173547        9.2425659329       12.4723906086
 Na         5.7238012390        3.1517700944        8.7619726536
 Na        15.2176636055       19.5965498354       16.9842201870
 Na        13.8219323660       20.7851811811       10.9771547496
 Na         7.0884200851        7.5978154536       11.9820666938
 Na         4.2325335444       10.4579997366       16.5581790671
 Si         0.9341961335        3.5386233313        6.1341819253
 Si         8.0586775000        4.1449465227        1.1150377537
 Si         4.6847989706       12.1160630852        0.6940786233
 Si        17.8107140566       16.9012099879        6.5970740355
 Si        17.4405349758        2.6947051788       19.8356226525
 Si         1.7650255069        7.7318159966        3.2319374659
 Si        18.3390974399       12.5971714251        3.1615130342
 Si         3.4511833735        1.7871987267        5.8030692433
 Si         6.0130203863        3.9329065439        3.3826452051
 Si         9.6049058440        1.7556409697       15.7995732550
 Si        17.8080361158        2.5538075293       16.8960468377
 Si         9.9406149110       18.0543135339        2.3548850705
 Si        16.4026637116       18.9498789365        4.8982984813
 Si        14.4946413180       13.0077663336       20.1565110183
 Si        19.2092828685       17.5231500068        9.3304421812
 Si        10.7716355046        3.2821476388        2.0194098235
 Si         8.7143655917       18.5176098445       19.1537681864
 Si        12.2879516785        6.2232626940       16.5132337195
 Si        17.4547449416        5.4716169748        9.4190623147
 Si        11.5454749811        8.8589375494        1.2539731320
 Si        14.8466643990        5.2858379402        4.3764162023
 Si         2.9928250706       17.3313127929       13.3053863312
 Si        18.1156212214       12.9124095126       16.0271838772
 Si         2.7672079578       20.4748044159       19.6645781394
 Si        13.9888156171       17.5728214619       19.5652169417
 Si        14.5772255188       20.4731279676       19.9010471516
 Si        13.6071398660       16.6088962160       16.7594037188
 Si        18.1273369421       18.6739756942       17.1967923111
 Si         4.5812584272       20.6246220714        3.0647929622
 Si         0.7180478618        6.7544464704       10.2945015335
 Si         8.2811427275       15.9429434694        1.2393581550
 Si         3.8413725336       18.4105392061       17.6874440620
 Si        18.1197769789       10.6357617329       20.2308457060
 Si         7.6962449920        1.9873785297       18.3715300806
 Si        19.4209309916        7.2962510904       16.6685594764
 Si        16.8692889749       14.9565150285        1.6460400323
 Si         2.5482849547        8.6519081219        8.9117220593
 Si        16.1255221566       11.6882265813       17.9609434527
 Si        18.9642482362        2.8822702976        8.9458836698
 Si         0.3302951011       10.0169214423       15.3690490145
 Si        15.9742458502       19.8643736391       12.8158704914
 Si        15.2210570483        5.3643461237        7.3109337193
 Si         3.3645222255        4.2521025727       14.6565673561
 Si        15.4859838713        2.6328053214       14.7960590638
 Si        -0.1548818294       19.5015173462       20.1247873272
 Si         1.2740909373       14.6796411126       17.1451923804
 Si         1.7029995665        6.6893296828       19.4125516375
 Si         7.3901490117        6.5087576999       18.2943115182
 Si         4.3548040419        0.7172561731        8.4880016385
 Si        16.2953434843        5.1481684819        1.6103298377
 Si        12.4809180878        3.3173139398        4.6195463828
 Si         2.5688253569       15.9655822817        3.7300075894
 Si         0.5012310201        3.0949659959       14.5846067338
 Si         4.6722693038        7.4929860228       18.7431923336
 Si        17.2591503945       17.2245684446       11.9111925195
 Si         5.4876108655       18.1114133694       15.1104841087
 Si         1.5356896841       10.9682617248        7.1127869438
 Si        14.7886468494       16.4755832292        3.1667318219
 Si         7.4502720192       19.9985000436       13.6498308102
 Si         2.0164253098        3.7956272736        1.1005506113
 Si         1.2861450590       17.5286303018       16.1493742865
 Si        16.5131501276        8.1153871238        1.1571327929
 Se         4.5463086481        8.4704373144       13.7382003328
 Se         6.3408128661        5.7934859509        7.1164498097
 Se         5.4593737729        5.4953669259       10.5457653282
 Se         8.3712532893        5.7443877945       13.5867127129
 Se         8.6722685431        3.2397191856        9.4369440647
 Se        11.2911667164        1.4897538386       12.3174155506
 Se         3.0490069263       12.2188776970       12.1078856865
 Se         6.1249532894       12.7410755526        5.1059355677
 Se         6.9294761680        9.7355204034        8.7084970396
 Se         7.6463043376       10.7221140016       12.4702343525
 Se         9.5390752469        7.3066264113        4.6074070412
 Se        10.2419875181        7.6271768545        8.8255580265
 Se        11.3155347343        8.8144390971       13.0588991842
 Se         8.1504851168       10.7147081848       16.8523414549
 Se        12.6346745403        5.1064812185       11.3225892639
 Se        15.8736634598        7.8966901588       13.6074609793
 Se         7.0123178817       16.6957192461        5.9324684699
 Se         3.7944272209       15.0487899856        8.4343227309
 Se         6.9756313520       14.6459944336       11.0573388950
 Se        10.1567423138       13.5149171972        3.6630767941
 Se         9.4467040859       13.3690619649        8.4234182337
 Se        11.0677674083       12.3878455974       11.6382799102
 Se         8.7548308600       14.6294048402       15.2248380213
 Se        16.3519256090        9.1042548539        6.1738498016
 Se        12.7889563919       11.3999773544        5.9054989996
 Se        15.3690287409       11.9817531051       12.6779106631
 Se        11.9504230038       11.8816947573       15.8677963598
 Se        13.4986098825        9.3943044741        9.5520070738
 Se         8.7421082359       17.8680164510        9.9041942051
 Se        11.8943848398       17.1534694651       12.9420441781
 Se        11.4818324713       17.6847611836        6.6116274639
 Se        12.9372102997       15.4834980442        9.3498736192
 Se        15.8946518147       12.9780004683        8.0124060070
 Cd         5.3070622982        7.5152909165        8.7654632486
 Cd         8.7061762421        5.5511237475        8.2380391477
 Cd         3.4514718759        6.5404920963       11.8037233890
 Cd         3.3864179876        7.3016077489       15.9390525817
 Cd        11.2637555637        2.9964729091       10.1377272563
 Cd         8.2227451125        0.7066190306        8.4924983002
 Cd         3.8525002250       13.5299364508        6.2048398336
 Cd         6.8325601972       10.1959984510        6.0510763878
 Cd         5.2342550748       11.1145296613       13.4049420632
 Cd         6.9234706682       12.5465143438       15.7557034758
 Cd         6.8437341773        6.9676832017        4.8027899093
 Cd         9.7146296137        9.0427646880        6.7263414982
 Cd        10.7499200672        6.2345783111       12.8952568148
 Cd         9.4653945892        5.1133400271       15.8543342296
 Cd        12.8955946919        6.8274039114        9.5125619584
 Cd        13.3579110543        7.9584209692       14.4024309742
 Cd         7.9591124109       14.7459155860        4.4451346360
 Cd         4.2884499737       14.4584301035       11.2637525343
 Cd         8.6813692526       13.4114511923       12.9145860332
 Cd         6.7246876546       21.5131631127        5.9869178421
 Cd        10.0483897052       12.5672857780        6.0710277406
 Cd         7.6734771223       11.9690036695       10.0858510790
 Cd        11.1425288774       15.6098450556       14.9047418759
 Cd        14.2658994885        9.7839794640        1.4176976703
 Cd        14.6755049537       10.5729823547        7.5970583262
 Cd        12.7371367281       11.1780776265       13.3458485492
 Cd        13.2335099703       10.0383393747       17.2780741533
 Cd        15.3235918393        9.6104748472       11.4278921701
 Cd         8.9326951760       18.3256312691        5.8881067908
 Cd        10.0687207172       18.5752641109       11.9763647514
 Cd        13.9767403153       17.7687002295       10.9614075600
 Cd        10.4645523660       16.0927251990        8.7383017050
 Cd        17.0544498571       12.0230703661       10.0445119250
