438
 i =     9100, time =    18200.000, E =    -10932.3619196314
  O         4.1494230647       16.1747348198        3.3567533808
  O         3.4786708688        8.4142400714       10.2029743107
  O        14.0900293219        1.0200252317        1.9914829782
  O        12.0800811506       15.4655897003       17.1142189521
  O         1.7429094731        7.3294390849        1.5136393055
  O        15.7440021616       16.2285677762       11.8847202107
  O         3.7242517219       11.2016432776       18.8532551774
  O        17.4732429979       15.6881177614       20.0724361556
  O        15.5934462649       13.8555309182       20.3495499452
  O         1.5790131212       15.6703769799        2.6383908420
  O        11.1700336622        7.3573476874        0.5756374401
  O        17.8939644580       13.4884498394        2.1125250551
  O        10.5076060412        6.6291889671       16.9378913599
  O         0.9619245645       14.7898267476       18.7473129778
  O        17.9000426888        3.0379251808       18.3784292339
  O        11.9021637504        1.9229486518        8.5991547087
  O        13.2155505429        1.1600267133       18.7185150283
  O        16.9028487858        6.2027774256        1.5462427410
  O        10.7150674031        0.6317655813       16.0353196309
  O        15.4840431231       19.1468637197        6.1440382051
  O         4.7120204239        8.0767416708       20.1242023225
  O         3.2242285800       18.7091547465       12.4443682341
  O         1.2709588574        7.6742681713        8.9434113541
  O        16.2072083330       16.0836117094        7.1923817784
  O        17.1268803295        3.4280759033        1.4810988545
  O         7.2784273467        5.9740659143       16.6439990857
  O        15.7586250804        1.6598050856       19.3673719479
  O        -0.1170637871       18.4536394702        1.9452443429
  O        -0.4135224305        4.0852144072       13.9548161260
  O         2.2401711247       17.8161273550       17.1554352145
  O        11.6156709441        3.9210310153        3.3338670133
  O         0.6332243609        2.6169122691        7.6654138263
  O         4.2791063540        2.6617345644       14.1117894663
  O        16.7719926844        4.6562037242       10.7504824535
  O         5.3210009068        5.3038012268        4.0223970029
  O        11.3426089061        3.8934610829        5.9339079469
  O         4.1312035795       18.5797783054        9.2803338341
  O        14.6094623691       15.4147677544       15.8742190791
  O        16.8456707571       11.0931419460       19.4311150666
  O        14.8582789545        4.7396379523       19.9415181217
  O        18.6068053815        3.1733427188        5.3090999373
  O         3.4746865041        7.8326387284        7.4734957608
  O         4.1328040034       17.3479916807       18.9811348753
  O        13.0285062557        7.7877011514       16.5154930287
  O         1.8311727556        3.0022829356       14.9286888411
  O        15.7719799272        4.6192181032        3.2504420586
  O        14.4584829254       11.7426584778        1.9309528564
  O         9.4088041960       18.7656075280       20.2413621570
  O         5.6630516268       19.5892914822        2.8525756341
  O        16.8539910498       18.6115741842       12.6954799349
  O         4.8176695889       12.1922447194       15.4245877825
  O         0.5648903172       15.9380505789       16.2167179939
  O        11.0655554257       18.1321881439        3.0284892356
  O        17.7730995066       10.8113135359        2.4840765745
  O         9.6212736960       16.2556552401        1.8884786299
  O         0.1554602571        1.4519535911       13.5172600301
  O         7.1338640718        3.1718618326        4.2243025676
  O         0.4413428084       18.7227114957        9.6252130532
  O        18.2256834651       20.5602729887        0.8921893679
  O         3.2794567027        4.6977637591        1.5683864876
  O        17.7823940675       13.4659844737       14.6680821061
  O         0.0310205636       13.4068653665       16.8093682266
  O        14.5755971724       12.1545994584       18.6521093809
  O         0.8095542414        7.1244711529       11.6900022612
  O         7.6580247568        2.4920414242       19.7936575873
  O         0.0841251279       11.0367201198       19.8463392791
  O         3.7697976371        1.8159664341        9.4865514594
  O        10.0329810083        3.0986535941       15.4760529454
  O         0.6136319031        7.5931380140       18.5161171280
  O        12.9233215503       13.5550002213       20.1531426168
  O         5.9720221209       19.1319862343       14.6288978337
  O         3.4919635072       12.6559889216        1.8362548163
  O        14.2454152293       16.2936906657       18.3597637865
  O         2.2013518719        2.8017409496       19.3718068866
  O        19.5693759716        9.5341855729       13.7207121989
  O         7.1585810118       15.2399744390        2.2422361086
  O         0.3034611255        7.7107804579        3.5928045509
  O        17.4792553419       17.4637793963       10.3422806683
  O         8.8825311024        1.9476568756       17.4435979398
  O        13.8833583483        6.0344133515        7.5549782206
  O         2.3449983592       10.0666756878        8.5763476080
  O         2.5252143579        9.3207232882        3.0481203800
  O         8.2601581891       18.3321694001       13.4736014321
  O         3.1759427097        0.4283285462        7.0148312107
  O        12.2045933908        5.9735830078       14.7923456810
  O        12.3067631813        9.8538716120       19.3448438596
  O        15.3717604999        8.0359443409       19.3785142525
  O        10.1392604391        9.5904953052        1.5379189870
  O         7.0165853049        1.1985789347       12.6612848366
  O         8.4687280289       20.3010855487        6.2789078239
  O         2.7898177582       11.4141130141        6.1237631439
  O         2.6345756476        4.8549332216       13.2175081562
  O         5.5906319578        5.9155074271       18.6761887501
  O         2.1256381939       17.2571011843        4.8578414417
  O        17.4428304709       20.0223889879       17.0226762234
  O         2.5674322141       14.2132842037       16.5111653704
  O        -0.8004761358       18.3419666714       18.6917702541
  O         1.2501537847        4.7341970936        6.0146202965
  O         3.7123780415       20.2498294701        4.4233209765
  O        15.2472261699       17.6922802244        3.9753271236
  O         9.2914612049        4.2614473481        1.9488788529
  O        12.4115100361       17.8653419243       19.6902523748
  O        14.5079634662       16.7673204114        1.6391336893
  O        16.9047499341       12.6183462263       17.1331096266
  O        13.6699202801        6.1888089813        4.3096269597
  O        17.0019776441        9.3582243905       10.5121733650
  O         4.8210756470        8.1322073042       17.3272881173
  O         1.0593093931        5.0860192911       19.4544469406
  O         0.2889373952       12.3014515157        3.6457141574
  O        18.4665605470        6.5343702675        9.7091651029
  O        14.9862980574       18.6402485267       19.5136280263
  O         1.7174299273       10.4787623687       15.6958878981
  O        -0.2239466141        2.4846509740       16.1747142769
  O        13.8823769461       19.0093695339        9.2420041452
  O         5.6436665872       11.2858190658        1.4332505228
  O         8.5255996596       18.1807304411        3.3927722460
  O        14.8789974597        3.5149756218        8.0115535539
  O         3.0473165859        6.6511523867       18.5811866563
  O         0.8128139974        9.6129385217        6.4639285242
  O        12.3959557612        1.5482253329        4.9904413298
  O        18.4298129128       17.5190187282        7.8659860441
  O         9.3241059796       17.7621153616       17.6943645696
  O        17.0694883190       19.8069813357        3.9947751566
  O        18.3098601499        4.2391155308        8.5767374541
  O        18.6728236035       12.9676559981       11.1229383723
  O         3.7512504138        4.6634701071       15.7409915154
  O         4.5181199307       17.0774123141       14.3554556201
  O        15.4941404989       10.2091460203       17.0678848366
  O        16.1844509256       15.3254696482        3.1017470603
  O        15.7261679390        1.2576507393       14.1470214161
  O        15.7725831233        3.9328196022       14.0780292842
  O         5.7264547182        0.9757701651        7.7269282268
  O         1.9326576896       17.5583724479       14.4852302755
  O         7.6081462684       17.0129916549       19.7481475140
  O         7.6124614884        7.6437409273       18.8072701785
  O        13.2570104224       17.7850691193       16.2046074410
  O         1.7847250270        2.2240186766        5.3362803638
  O        16.4323861332        2.7818366290       16.1378608492
  O        13.9115994978        3.6242496684        4.5640143629
  O        -1.0593255089       16.4912789086       12.8320942194
  O        17.7460871246        8.7348453899       20.3377779618
  O         0.3769504302       16.0798349861        9.7614421414
  O         6.1602187581        2.4981152464       17.6587335282
  O         6.4943866268       16.7580812281       16.1067260538
  O        17.0401610470       17.4546465491       16.7053960304
  O         4.2876345003        2.8798708082        6.2330126562
  O        15.9187200342        1.3508862263       11.4116713452
  O         2.6391451926        6.8517492440        4.0844342061
  O        17.6662503756       21.0064104037        8.5911273368
  O         0.0229712244       18.5198349205       16.1251848759
  O        15.6975000150        8.3635228588        2.6903643071
  O         1.7993584484        5.3189221111       10.0993381911
  O         1.3477365709       19.5709530661       19.4573517389
  O         0.6506172013       11.9948488296        7.7151908779
  O         6.6755906865        4.4542042091        1.9204841165
  O         2.9223402157       15.9637883376       12.5645814656
  O         3.3318238777       20.3557089071        1.7325048588
  O        11.3605032460        3.3842122963        0.7003459358
  O         3.5958687353       19.9147713002       18.5167040503
  O        16.4683152345        5.8469375809        8.2662821386
  O         2.6591384863       14.4800284513        4.8976510392
  O        12.5301780053        8.8662598259        2.4481138598
  O        12.8060409204        5.1747439040       17.2180680893
  O         8.5387715604       14.5727923660       19.4212263393
  O         6.3397696903        8.9400917012        4.2985173999
  O         7.4363191476       19.5721397987       18.6982456610
  O         8.1590385041        5.0320188497       -0.2770787212
  O        14.1654256799       18.9522547711       12.7460751815
  O         0.9831863606        3.5984568248        2.3322889226
  O        18.6827047112       15.3472433251        6.3149106510
  O         8.2348294290        1.2022113477       15.0648833823
  O         9.1773380178       10.1835531848        5.6632813203
  O        17.1690938475       12.3588428947        4.5344395380
  O        18.1191928290        6.2748653525       17.0618883541
  O        18.9462870686        8.7373383356       16.2285179460
  O        13.8289138175        2.5330463286       15.4832557432
  O         4.5468975700       18.6819108214       16.5439377981
  O         0.1438082697        2.4347694439       10.3365682795
  O        13.6029136304       15.5825081504        3.9357814420
  O        17.5905520619       17.4924498433        5.3852727208
  O        15.7254979761        5.0822640193        5.8510965671
  O        10.1198574929        1.8338947892       21.9809818604
  O         4.7572811060        2.9059768622        3.0389835493
  O         1.1858741483        6.6477853582       16.0096799371
  O        18.4064072336       11.1532672627       15.5568358292
  O         4.9657980395       13.6036892889       -0.0113599214
 Na        13.3858360080       14.3546372015        6.3253446236
 Na        -0.6579201303       18.8259925943       13.8589889880
 Na        14.2410311657        3.2961838115       17.9809040320
 Na        14.2295312712       17.3581735274        7.1217671794
 Na         4.2489550786       13.0458965434       17.4512201753
 Na        13.2495128186       19.0597649661        3.9237967449
 Na         4.6497571576        4.1162063538       19.4615933263
 Na         2.1720049972       18.2031146036        2.6632285357
 Na         5.7466333459       15.8165006443       18.3746410617
 Na        19.1254072340       21.4357410082        3.1455827988
 Na        19.2880623203       16.5811217872        4.1010305224
 Na         3.2004363255       15.2439469322       20.1559407229
 Na        14.4073995451        5.3225362968       15.5563203531
 Na         2.1547778869       20.1902574657       10.5347472563
 Na        11.6394904764       18.2321881398       17.5594132992
 Na         7.4072427725       16.4081415723       13.1806952988
 Na        13.4358829019        3.4242707378       20.9836047768
 Na         5.4791298436        0.0035971676       11.5621170545
 Na        20.1257596528       13.3160500994        5.6047458034
 Na        11.6587700412       19.7856652656        1.4244906017
 Na        17.3906548818       14.1845578338       12.4641391614
 Na         2.2642763417        9.8690369551        0.8067281876
 Na         4.7921238695       10.6290219496       10.2231243226
 Na        11.9749677020        3.6831991099       14.8490248707
 Na        12.5121087730        3.9723285200        7.9638216121
 Na        14.2362378673        8.2950798715        4.5714944138
 Na         0.6493715822        6.1862463090       13.8815612618
 Na         2.2104678075       12.5257322682       15.0089229405
 Na         4.3720226496       17.8083683934        5.2526654681
 Na        18.0784305548        5.2274264894       18.9986896750
 Na        11.2545408856       15.6502913035        0.0491447205
 Na         1.7636073932       16.3166456061        6.8259636541
 Na         7.8497148447       20.5368417394        2.8542154763
 Na        15.2327972936        2.0234122394        3.6446571507
 Na        18.8311029588       11.6491231799       13.0385864303
 Na         8.3759767785       15.5653286869       17.2694062688
 Na        16.6980106105       18.2730911759       21.1334219847
 Na        12.4664269512       19.7280226335       14.5366276244
 Na         2.6128009213       17.2289241598       10.3550354094
 Na        14.5808421689       17.1038142333       14.2716995331
 Na        13.7513152299       14.6019239630       11.8473730286
 Na        18.2306567889        8.2757911093       12.1028189302
 Na         4.8626946557        9.3951262815        2.6271237691
 Na        15.1835427209        5.5526413488       12.2116131179
 Na        10.5759468620        9.7630197332        3.7237240832
 Na         6.8944912703        8.1939201852       15.9456890057
 Na         5.5087144695       18.9859838348        0.6055450549
 Na         7.1979632552       12.8557438154        0.2473456902
 Na        15.8164908809        8.0749454796        8.8678125010
 Na        11.3458069578       15.9695158869        3.9067892620
 Na        16.5057381037       19.1045646057        8.3998122671
 Na         5.1125094495       14.1192800477        2.8623806348
 Na        16.8898371294        2.2024244922        6.5973715022
 Na         9.6292679997       18.1231250911       15.2948132620
 Na         6.4788642857       17.2370233675        3.1882980773
 Na         4.4465452939        6.4790384661        2.3010101304
 Na        18.0380493518        5.2332041312        6.4946064401
 Na        17.6651775284       11.6332914516        6.5257998331
 Na        17.6792898092        8.6243359882        3.7341159005
 Na         2.3370464652        3.4825496209        9.0698252105
 Na        13.0049922427       13.4274768225       17.8444503611
 Na         9.6097325976        8.2672369961       17.9920087684
 Na         2.6717199367        4.1380002107        3.7755619530
 Na         1.4691842413        7.3174804807        5.9908738197
 Na        18.9632197044       14.0760219373        8.6070509811
 Na         1.3350671651       13.5346216392        1.7502971131
 Na         7.8155518495       10.5335683988        3.0003921853
 Na        19.7637381795        9.9547682362        4.3088764006
 Na         0.6702655866       15.1966240051       11.9468023001
 Na        11.4820458472       19.1455887659        9.0832720509
 Na        16.5543899434        8.3110913309       17.2840847810
 Na         0.7260907489        4.0031860450       11.9284964746
 Na        16.8312054197       14.3978917801        5.1299095937
 Na         9.2653280916        4.1622029116        4.7590772925
 Na        -1.0000184738       13.1788234023       19.1285430360
 Na         5.6091528681        3.1442977184       12.4210782336
 Na        10.1316654862        9.7641838572       10.0312315082
 Na        10.4347857664       19.8588916354        4.4087709401
 Na        19.4947122853       19.4432666844        7.3198512819
 Na        15.8122689071       15.6005946137        9.4049781542
 Na        16.0999939173        2.8420573535        9.7373176273
 Na         3.7989349604        5.4973079859        6.0842106823
 Na        16.3392491146       15.8492047718       18.1644885204
 Na        10.6358655576       11.7412920214       20.1883528441
 Na         5.2304463714        1.5447045329       15.9754650790
 Na        11.6997445974        6.0998049253        5.8308505573
 Na         8.9658658506        2.7550437297       13.1643762705
 Na        11.5908850193       21.6862344201       17.9350338305
 Na         6.7884208242       13.7386025793        7.9859637652
 Na        10.7058348457        5.3206091528       18.8219894450
 Na        12.1254872801        6.4967357880        2.6610599888
 Na         5.4582889756       16.9563405479        8.6254754131
 Na         4.3282298697       14.6013330119       14.4536703701
 Na         1.5383158896       11.2151675314       17.9594309569
 Na        12.9192246862       13.2226051029        3.0093252102
 Na        13.7284619643        1.2824642469        7.1265923856
 Na        10.3600448477        1.9041145801        6.8860002054
 Na        -1.2445821064       20.0517222358       11.0282039186
 Na        17.2335738393        3.1334991808       12.5070904163
 Na        17.5130942432        5.0589942333       15.3439330130
 Na        10.0141363735       11.1850298427       14.6110910571
 Na        -1.4878249377       15.8255975439       15.0314275945
 Na         2.5321205521        1.0176367369       13.8063986037
 Na        12.2923847271       12.6465095695        9.0138793564
 Na        19.2462994190        5.4643813680        3.2109830875
 Na        15.2435122588       13.4684635624       15.1939500925
 Na         0.2458721833       16.3037621767       20.2524619192
 Na        15.3402680427       11.1505672225        3.8979916283
 Na         3.7337810460        9.1028410539        5.3079613764
 Na         2.5924664111       12.0308118258        3.7215409907
 Na         1.6197378436        4.2020969637       17.0939453415
 Na        18.7552776069        8.9094778480        8.3571821211
 Na        16.1463152177       10.3859578849       14.8842304026
 Na         5.9226475614        4.2667619338       16.0133143812
 Na        13.5330754623        6.4850205131       19.0163818631
 Na         6.2978416776        9.7674195471       -0.1108104857
 Na         1.7421119666       12.3171845353        9.8271608288
 Na         8.7627296720        7.5196097949        1.3598563360
 Na         1.9256165993        9.2324170879       12.2067409419
 Na         5.0652789700        3.4071516061        8.4909155576
 Na        14.8925344090       19.1672644393       16.9255886442
 Na        13.6531736414       21.2223535188       10.2649129661
 Na         7.1965771775        7.7637020969       11.9107607636
 Na         3.9931501854       10.0258325583       16.7391002551
 Si         0.6485183678        3.2763348728        6.0747996047
 Si         7.9549755217        4.0047341314        0.9747972626
 Si         4.4572473999       12.1572684052        0.6864284004
 Si        17.6382264278       16.5374370684        6.7731906448
 Si        17.1856510789        2.3264547421       19.7284551407
 Si         1.8412334168        7.8338988730        3.1482070369
 Si        18.1636149756       12.3290927070        3.2459855388
 Si         3.2594932751        1.5955571659        5.8593611006
 Si         5.9834998735        3.9924887557        3.4281127432
 Si         9.5092250082        1.6502331437       15.9714577284
 Si        17.7220449779        2.2535450885       16.8373306691
 Si         9.6578641650       17.9120621114        2.3158903256
 Si        16.3930833357       18.6446895401        4.8412288262
 Si        14.3524983937       12.8519401600       20.1610322535
 Si        18.9699165054       17.4057771945        9.4936370710
 Si        10.6134523573        3.2580361005        2.0973926662
 Si         8.4802474045       18.2430499758       18.9531253006
 Si        12.0271317795        6.4099739459       16.3737624387
 Si        17.4825535828        5.3203125009        9.4821306315
 Si        11.4915359694        8.8861761153        1.0994746913
 Si        14.7378372278        5.0346729245        4.5046438824
 Si         3.2073623241       17.4015857581       13.3738802006
 Si        18.2104101507       12.6980047551       15.9746132906
 Si         2.6876855386       20.6380729747       19.6177928676
 Si        13.9077919065       17.3526961994       19.6126551708
 Si        14.3585903612       20.1826712734       19.8137248083
 Si        13.5157944718       16.2844634599       16.7995400457
 Si        18.0902992092       18.5657027150       17.1311959968
 Si         4.4616590474       20.6587121698        2.9992023073
 Si         0.8564923567        6.6004657832       10.1977286241
 Si         8.2282379580       15.6638732268        1.1678167809
 Si         3.6417728361       18.3214228653       17.8687299725
 Si        18.1122288955       10.4188968841       20.3200668829
 Si         7.4800360630        1.8156140819       18.2692586793
 Si        19.4030228654        7.2580552433       16.8886301890
 Si        16.7729683530       14.6656656379        1.7162980482
 Si         2.7658763297        8.4679389467        8.7484763850
 Si        15.9802725584       11.4437864628       18.0177453643
 Si        18.8308115301        2.7120964958        8.8864842347
 Si         0.2704718506        9.9123977683       15.2830833325
 Si        15.5494824241       19.8059106353       12.6858865976
 Si        15.1266683033        5.0470657329        7.4817883665
 Si         3.1838792409        3.9056615505       14.4434272529
 Si        15.2933549113        2.6492874098       14.8775876599
 Si        -0.1735832247       19.1466500081       19.9358454461
 Si         1.1426657201       14.6552789672       17.1272701153
 Si         1.6302679904        6.6903489869       19.4017127831
 Si         7.2333426552        6.1979546717       18.2417829390
 Si         4.2094429232        0.5875133603        8.4387924420
 Si        16.0224336895        4.8155403892        1.6296431625
 Si        12.2551682296        3.1184408075        4.8063227955
 Si         2.6457502967       15.8470461545        3.9527613603
 Si         0.2405815524        2.7230447203       14.5059915263
 Si         4.5401551279        7.3010029040       18.6925184979
 Si        17.0661474112       17.1084504791       11.9801815154
 Si         5.4855118123       17.8325933502       15.4806347015
 Si         1.6325676972       10.8182785005        7.1428071505
 Si        14.7786020951       16.2691727011        3.1983854047
 Si         7.4471416753       19.6702528987       13.9136356254
 Si         1.9111870267        4.0141405117        1.1538790080
 Si         1.2038391178       17.4264390359       15.9677847808
 Si        16.3752158886        7.9358878586        1.2606724692
 Se         4.6295926278        8.1727867289       13.8449259715
 Se         6.7738382321        5.2962518860        6.9405382832
 Se         5.7051989681        5.5350682679       10.5348278999
 Se         8.4729846933        5.4730184891       13.1059206166
 Se         8.1610294619        2.7496574445        9.7692885616
 Se        11.2482179522        1.3108274328       12.4126634281
 Se         2.9597459545       12.1899854337       12.2292922317
 Se         6.0725744942       12.4038995016        5.1842213447
 Se         7.1304859437        9.5460066197        8.6612205850
 Se         7.4270945306       10.5326781549       13.1289274426
 Se         9.4971151275        7.0015810357        4.2241804944
 Se        10.3574390278        6.9381781006        8.7739772230
 Se        11.0708155064        9.0001295019       12.8919766197
 Se         8.4053851303       10.9075342847       17.5952137426
 Se        12.6050868757        4.8271099224       11.2331299301
 Se        15.6502100744        7.9220885347       13.9735682455
 Se         6.7261877052       16.2528595126        6.1193634031
 Se         3.2878396804       14.6675773813        8.5736843345
 Se         6.8168516294       14.5869072171       10.8329102303
 Se         9.7922544798       13.0446355848        3.2189816366
 Se         9.5848997439       13.5145174140        8.0852275090
 Se        10.6496094061       12.4729883931       11.4156997480
 Se         8.5143445222       14.1385695762       14.6907104741
 Se        16.5491659674        9.0652235269        6.1980277373
 Se        12.8415609638       11.5258250886        5.7248269169
 Se        15.1730112807       12.1819242381       12.7618636015
 Se        12.7738360462       11.8340147832       15.4265995363
 Se        13.3112859527        9.3705483729        9.5101902279
 Se         8.4934733261       17.7520761698        9.7550474239
 Se        11.6634684708       16.5341813166       13.3273526851
 Se        11.1257958217       17.5899633914        6.3370903798
 Se        12.7063504522       15.7053352794        9.4932016632
 Se        15.7623208515       12.7861930629        8.3513214103
 Cd         5.5172225244        7.4124463236        8.4856924231
 Cd         8.2517315812        5.3487293633        9.0488031236
 Cd         3.4555238318        6.3626186475       11.7314339999
 Cd         3.3350764931        6.9689110684       15.7525301301
 Cd        10.7314335544        2.8283787795       10.1962094604
 Cd         7.9284891402        0.5582912002        8.3396328097
 Cd         3.9152349604       13.3120964062        6.3504542505
 Cd         6.9440968193        9.8940616060        6.1611647136
 Cd         4.8570453244       10.8975018406       13.6311318863
 Cd         6.9196185204       11.9767898290       15.9390580154
 Cd         6.8644864904        6.8091911754        4.8261219311
 Cd         9.5301343548        8.2252578127        6.6052764302
 Cd        10.8314279940        6.3983789035       12.5920291406
 Cd         9.1596459513        5.2919809532       15.6720577386
 Cd        12.9288126564        6.6990919551        9.4543832922
 Cd        13.0839066819        8.1986852927       14.3540329180
 Cd         7.8619007088       14.4660985486        4.4030667659
 Cd         4.1944002895       14.2687033371       11.1476375024
 Cd        10.5088487524       15.1783290849       11.2348656699
 Cd         6.5065350488       21.4947789626        6.0147760070
 Cd        10.0465300804       12.2206281484        5.8215508769
 Cd         8.1053395610       12.8692058187       12.2396819181
 Cd        11.1848214182       14.6576304328       15.2226817729
 Cd        14.3263124577        9.6558247322        1.3501246576
 Cd        14.6820823858       10.5129198298        7.3533189567
 Cd        12.7879548767       11.3705539972       12.7116423693
 Cd        13.0680038243        9.8941193834       17.3417507009
 Cd        15.0507317087        9.6198112915       11.5439680340
 Cd         8.6098110549       17.9520998351        5.8003662115
 Cd         9.6733338251       18.8690619489       11.7263046566
 Cd        14.0294280568       17.6991073101       10.9239876542
 Cd        10.3675615818       15.9265993447        8.1167748361
 Cd        17.2903972329       11.5522260953       10.1597202013
