438
 i =     7200, time =    14400.000, E =    -10932.3651246186
  O         4.1205497928       16.3964054051        3.4883030345
  O         3.3898522694        8.6988451249       10.3412368091
  O        14.3612979146        1.3262000119        1.9634353047
  O        11.8690398400       15.8671774615       17.3481043583
  O         1.7853096840        7.3361407299        1.5714373036
  O        15.8256497890       16.3713109834       11.8210896755
  O         4.0466510521       11.2855684607       18.5931235034
  O        17.3149492962       15.4026570889       19.8777580255
  O        15.4348505475       13.6574549926       21.1775651020
  O         1.6538918004       15.7589591908        2.5659063340
  O        11.1483754127        7.0082569333        0.5264390104
  O        18.0553212494       13.6188865149        2.2803486760
  O        10.7870895365        6.5060361143       16.8424217851
  O         1.3165826730       14.3219334012       18.7578733551
  O        18.1171907493        3.0762479685       18.4254071665
  O        11.8995830223        1.7885389564        8.6408412458
  O        13.6747039885        1.3728990927       18.7554821130
  O        17.2338487043        6.3300752252        1.6072983295
  O        10.5166186155        0.6794110415       16.0668576469
  O        15.6408223613       19.3493306149        6.2286038424
  O         4.5061533365        8.2104274910       20.2247105939
  O         3.3167468420       18.7470424508       12.5204406112
  O         1.1834685863        7.7428394059        9.0220275065
  O        16.4094760081       16.4573194945        7.4869825217
  O        17.3495465667        3.6237158743        1.5110057710
  O         7.4410425910        6.0670323113       16.8754224270
  O        16.0383468149        1.6933162445       19.4240038852
  O        -0.3820129825       18.1889031401        1.9771739695
  O        -0.1386908161        4.0631190451       13.7834964828
  O         2.0823410848       18.0209019581       17.4034131676
  O        11.7660827362        3.7645394579        3.3632603530
  O         0.8019983249        2.3192931969        7.5775435166
  O         4.6758687544        2.6839539138       14.3732301858
  O        16.7009140555        4.3769389260       10.6644662620
  O         5.4934987735        5.2013899636        4.1443159637
  O        11.5844180849        3.9416194034        5.9913199267
  O         4.0287282972       18.8781188549        9.4603158675
  O        14.3134663103       15.3805768886       16.2436737721
  O        17.0789726464       10.9376863818       19.2327293360
  O        15.0604615857        4.7833253216       20.1712334362
  O        18.9084870233        3.3099514674        5.4069375228
  O         3.3235566009        8.4131821466        7.5308361020
  O         4.3268996289       17.2594226817       18.8989074455
  O        13.3593987311        7.4770272189       16.3860861004
  O         2.0888499921        2.9318984348       15.0406577466
  O        15.9724097803        4.8068051418        3.3217484353
  O        14.1363142688       11.4005666056        1.8833555377
  O         9.5903337857       18.8446607165       20.3869317213
  O         5.8003971069       19.6518800558        2.6802317882
  O        16.9709166955       18.8691152423       12.4948739904
  O         5.0429244347       12.2980797996       15.2650624379
  O         0.6805874880       15.8663105428       16.4945913139
  O        11.3627041289       18.1440234618        3.0082105436
  O        17.8122712426       11.1148849374        2.4273209637
  O         9.4988057474       16.3744289430        2.0028412983
  O         0.3864948534        1.4577705705       13.6356023883
  O         7.4094851041        3.2073502233        4.3522259791
  O         0.8045164269       18.6263868181        9.8302221365
  O        18.4155711420       20.5798355552        1.0138563801
  O         3.3510716565        4.4276509555        1.2073281518
  O        17.5679995736       13.7043028304       14.8408897911
  O        -0.0827382137       13.5043857911       16.7887553872
  O        14.9076446977       12.4637997150       18.7762514400
  O         0.8821027133        7.2982780892       11.7876818038
  O         8.0147625171        2.4839246797       19.9356685547
  O         0.3608553384       10.9597026906       19.9659518674
  O         3.8331956966        2.1076805143        9.1042816134
  O         9.9697469864        3.1912315807       15.2523052097
  O         0.4916600771        7.3215951404       18.5311633840
  O        12.9521563694       13.4860337821       20.1389586276
  O         6.0528752812       19.1454083532       14.6559159513
  O         3.2583112012       12.1531211503        1.8396753397
  O        14.1528187440       16.3549829516       18.6889408678
  O         2.0987709660        2.6779989601       19.2252318264
  O        19.5857945854        9.6960808121       13.7908996922
  O         7.0606552338       15.4672405786        2.4079284939
  O         0.3644370394        7.5202621396        3.8349527410
  O        17.7263875224       17.6090507875       10.3340895837
  O         8.7991981839        2.2212831729       17.3518154551
  O        13.9478554301        5.8744573292        7.7722652247
  O         2.1146221836       10.4928161948        8.7962271027
  O         2.5964934190        9.0193632586        3.6121866903
  O         8.2297923075       18.1861395530       13.5508715252
  O         3.4146199445        0.6711026256        6.8962347800
  O        12.3759478172        5.8420996454       14.7486958158
  O        12.2353629383        9.3819602932       19.2045553755
  O        15.5338292928        7.8859347116       19.6319096952
  O        10.0843587335        9.5103741722        1.3127565933
  O         7.0740387778        1.0272450908       12.4899781102
  O         8.6105444528       20.2994984248        6.4268740641
  O         2.8324444766       11.7566707440        6.4526503092
  O         2.9324480787        4.5962059696       13.1984911882
  O         5.6501529953        6.1616639828       18.9653189390
  O         1.8791951084       17.0426755078        4.8465404605
  O        17.7112013162       20.0759418107       17.0168647347
  O         2.4990760748       14.0519902351       16.2945827121
  O        -0.5755654516       18.3880028084       18.6836990755
  O         1.5886358942        4.6335425756        6.4929712670
  O         3.7597526645       20.1845279961        4.2373018769
  O        15.3221319897       17.8385810587        4.0059853843
  O         9.4315565909        4.3234462497        1.9744625396
  O        12.5000360866       18.1636645649       19.6871187407
  O        14.0673862356       16.8021894652        2.0268503934
  O        16.8888119806       12.7248806573       17.2218055188
  O        13.7792926527        6.2557326865        4.2029128130
  O        17.3534636733        9.5472364423       10.1505943734
  O         4.7123459948        8.1295806740       17.3023196075
  O         0.9621561548        5.0799780987       19.5711047472
  O         0.4541305327       12.2818877213        3.6697914804
  O        18.5808191838        6.3610202733        9.9891179217
  O        15.1192575039       18.5970712995       19.7486343521
  O         1.7628519812       10.5702595596       15.9285231024
  O        -0.2625180334        2.9350832729       16.0709986901
  O        14.1751208219       18.8345370561        9.4425259382
  O         5.7009700811       11.2911020585        1.3065354039
  O         8.7239614498       18.5496592134        3.4637447407
  O        15.2330370101        3.4512971162        7.6882663200
  O         3.0305262113        6.5877512551       18.6950752180
  O         0.6946786205        9.8622975816        6.5678545386
  O        12.6023477381        1.5789851959        4.9091914629
  O        18.8385489132       17.6301670949        7.8085552299
  O         9.3731269102       17.5580127411       17.8759486655
  O        17.1212695555       19.8827221244        4.0164359915
  O        18.5266707299        4.0663549198        8.6627304967
  O        18.6535875767       13.2945972235       11.2572925711
  O         3.9036758805        4.8640931214       15.6753032895
  O         4.4178640883       16.9970559963       14.4235573406
  O        15.4734050677       10.2952903907       17.2252555316
  O        16.3684607544       15.6492447251        3.0133532296
  O        16.4106118711        1.3635951098       14.1336626131
  O        15.7696482526        4.1020379732       14.2472452077
  O         5.8951467418        0.5997030227        7.8449304965
  O         1.9057430757       17.6164283538       14.6891777456
  O         7.4816942856       17.2769786233       19.9311862129
  O         7.8421148877        7.7897007652       18.9915880756
  O        13.5540357262       17.8689889392       16.4238142941
  O         1.8927269390        2.1887117297        5.2581053506
  O        16.3630832732        2.8462834299       16.4687163392
  O        14.0392681577        3.7086313834        4.7802039519
  O        -1.2289858810       16.6564580053       12.9884788398
  O        18.0374919901        8.8679766399       20.4416876139
  O         0.3895729212       15.9277641120        9.7102609435
  O         6.1872191031        2.5521716946       18.0420293846
  O         6.4853585196       16.8525676112       16.0571456372
  O        16.8827509261       17.4475105947       16.7182464427
  O         4.6428436177        2.7481395932        5.8180662486
  O        15.6406524834        1.7027958136       11.6239688125
  O         2.7462068409        6.1900332306        3.8951733969
  O        17.7832624909       20.8473164467        8.6147384044
  O        -0.1125092326       18.2410525509       16.0746854459
  O        15.8959651334        8.5410051207        2.8113521112
  O         1.7873762221        5.3308122450       10.2874005081
  O         1.3788060323       19.4987267586       19.8843848376
  O         0.5904240501       12.3763553108        7.6494933198
  O         6.7933303711        4.4329961815        1.9499309749
  O         2.8211532938       16.0228601241       12.6102904605
  O         3.4508182839       20.5646811323        1.6553079867
  O        11.5367476090        3.4432819255        0.6993553549
  O         3.5275173402       19.9348033934       18.4049416089
  O        16.5773365663        5.7979024461        8.2863768250
  O         2.6302423135       14.5030302250        4.7854389476
  O        12.4220638688        8.5434207309        2.2882586776
  O        12.9767830323        4.8973439414       17.1853853626
  O         8.3784041344       14.8140715315       19.6038537769
  O         6.0197470414        9.0975484288        4.6806294115
  O         7.7156237647       19.6273651338       18.6062006274
  O         8.0731855125        5.1058850929       -0.2035856033
  O        14.4710937191       19.0293282387       13.1494968442
  O         0.9346931323        3.4297969902        2.2869656791
  O        18.7166117400       15.4148320218        6.3091209722
  O         8.1096157880        1.1414449133       14.9725952489
  O         9.1366661071       10.2950353287        5.3478028468
  O        17.3480692582       12.4697554276        4.6244316228
  O        17.9192012982        6.6031657136       16.9000296033
  O        19.1084226137        8.8158088878       16.3333453684
  O        14.0874211489        2.1633991747       15.3805345011
  O         4.4632050393       18.6063657441       16.5049725328
  O         0.4717154764        2.3152030449       10.2641843814
  O        14.0883597552       15.2685777498        4.3261068176
  O        17.6960281550       17.7465018808        5.4375264197
  O        15.7565992205        5.3641071778        5.8134658351
  O        10.2124869402        1.7665938392       22.0193737426
  O         4.9064436336        2.8697622677        3.0794553178
  O         1.0525280620        6.2748875508       16.0851482742
  O        18.4944541395       11.2285475683       15.5470691143
  O         4.9527775150       13.6551649313        0.1645787342
 Na        13.4596066801       14.1976629466        6.5761801290
 Na        -0.9517034856       19.2405509939       14.2210897387
 Na        14.5693559459        3.3018169516       18.0167744143
 Na        14.4138818209       17.4826782467        7.4838108000
 Na         4.3064271981       13.7321520471       17.4845127453
 Na        13.2635523226       19.0875869376        3.7248958663
 Na         5.0541062329        3.9899110493       19.2636992166
 Na         2.1075200698       18.4416016589        2.9571298083
 Na         6.3372059908       15.9041736602       18.3688792115
 Na        19.1240035549       21.2364760155        3.4571956139
 Na        19.1985635598       16.6323285084        3.7782614449
 Na         3.7158758035       15.6588525382       20.4770204272
 Na        14.9402756067        5.6211446279       16.0480711522
 Na         2.3282099996       20.1350570228       10.3802156879
 Na        11.4099742783       18.5544218096       17.4160692830
 Na         7.1905548650       16.1922250833       13.8452389671
 Na        13.4643993664        3.2804726000       21.1487355355
 Na         5.2610338525       -0.2671550138       11.5824169534
 Na        20.0486300541       13.7809203402        5.4528252285
 Na        11.7237183073       20.1047130926        0.9938727512
 Na        17.0797102279       14.3518258660       12.5233412633
 Na         2.3349384042        9.7650769311        1.0766449026
 Na         4.2552746524       10.9129485753        9.6114139927
 Na        12.2339081681        3.3065928409       14.0204977674
 Na        12.6472813199        3.9607606426        8.2090149042
 Na        14.1111690038        8.4328124282        4.2575710832
 Na         0.9537209917        5.9013036109       13.8051127307
 Na         2.6179678550       12.3085304744       14.9573526937
 Na         4.1173174640       17.9309712229        5.4762508033
 Na        18.2324576152        5.4583891339       18.8570213255
 Na        11.4489751314       16.1419261230        0.6114923894
 Na         1.4992360124       16.3408208630        6.8539568380
 Na         7.8226170115       20.6261690544        2.7775028616
 Na        15.7631119213        2.1083071523        3.7728791042
 Na        18.5636541932       11.9617196798       13.0597482396
 Na         9.5964680005       15.1410492817       17.7219587121
 Na        16.5948413065       18.4645181433       21.6007638373
 Na        12.6335782031       19.4998793223       14.6540942330
 Na         2.7477899214       17.1176434335       10.4175229393
 Na        14.7474821883       17.1420636385       14.3509237937
 Na        13.5540685060       14.1326300141       11.7031862956
 Na        18.3169514685        8.6543448368       11.9788047526
 Na         4.5739054284        9.7649975948        2.8180736808
 Na        15.0189794363        4.9872203016       12.2450703390
 Na        10.7885009299        9.8583158850        3.5576746072
 Na         6.5702786217        7.8092031384       15.6174119057
 Na         5.7086285564       18.9268859218        0.4854159317
 Na         7.3423796667       12.6045623011        0.2975019612
 Na        16.2098254753        7.8903929878        9.0839313238
 Na        11.4158604559       16.2042547528        4.1454264620
 Na        16.5994370109       19.0298907046        8.6175644710
 Na         5.2520151987       13.6789889471        2.6728805174
 Na        17.1095494324        2.2702571770        6.5152916821
 Na         8.4927019964       18.3189512123       16.0877262150
 Na         6.3846945655       17.4409196411        3.1665161381
 Na         4.4323903860        6.1902692310        2.2161492232
 Na        18.2962939770        5.2863893647        6.5730326341
 Na        18.0574639747       11.5040693384        6.4578089059
 Na        17.5839609936        8.0046711002        4.1858382442
 Na         2.4427036813        4.1105361178        8.5953670007
 Na        13.1816874845       13.7319319402       17.9803098644
 Na         9.7404452609        8.3279937574       17.8648130478
 Na         2.9983283967        3.9514189576        3.5624725712
 Na         1.5682626559        7.5371723375        6.2375857524
 Na        18.4442493309       14.2450989852        8.4675063244
 Na         1.4676674304       13.4035923422        1.6742390247
 Na         7.5192290975       10.6365573113        3.2292371950
 Na        19.8834776260        9.9749258193        4.2997049949
 Na         0.4935697898       15.3674998390       11.9574897566
 Na        11.8378224206       18.9434231971        9.1594635942
 Na        17.1185130964        8.5691141303       17.8867443842
 Na         1.2330517760        3.6835289853       11.7203869478
 Na        16.6088495708       14.3835859152        5.5373161257
 Na         9.4091272760        4.3133437545        4.7983213642
 Na        -0.9468452001       13.5393525176       19.2370130977
 Na         5.6613334633        3.3057991136       12.3119675778
 Na        10.5122705377        9.5857038564       10.4145524559
 Na        10.5896640681       19.8967613576        4.4925606564
 Na        20.2037192609       19.3759652500        7.5429158246
 Na        15.8536943185       15.5556508297        9.5410063239
 Na        16.0213492327        2.5018850612        9.5594515344
 Na         3.7901700702        5.1572590489        5.7878722691
 Na        16.2491046910       15.7650218034       18.0425278868
 Na        11.3529218673       11.4187196651       19.9730626851
 Na         5.3579206738        1.4935195766       16.2502117190
 Na        12.2286078611        6.1999506820        5.9475220750
 Na         8.8692876540        2.7788460366       13.0099436707
 Na        12.0455750837       21.9603895105       17.6071927044
 Na         7.0350509001       14.4583086122        7.7997792509
 Na        10.8277205494        5.0834275690       18.7912589109
 Na        12.0266350882        6.3814356526        2.6310101432
 Na         5.9636497604       17.6020767510        8.2347355193
 Na         4.0049072696       14.5635874467       14.4687561047
 Na         1.8043005205       11.3676322695       18.0752072267
 Na        12.8205991405       13.3227224235        3.3691536096
 Na        13.6098737150        0.9831887727        7.0750803637
 Na        10.5773072275        1.9453323988        6.8432050122
 Na        -0.3848342259       19.8337002527       11.2534020099
 Na        17.4005309898        3.5121296987       12.6733069836
 Na        17.7683168889        4.9669669590       15.2763280028
 Na         9.7621456815       11.1632130735       14.9423456969
 Na        -1.1952196359       15.9086982939       15.1346881507
 Na         2.7770572229        0.7476278333       14.2764473159
 Na        12.4882802996       11.9650311401        8.8091497166
 Na        19.4922280222        5.1492357557        3.5874242366
 Na        15.0050236638       13.5020714736       15.2696546665
 Na         0.0547930454       16.0712025608       19.9904215685
 Na        15.6040996781       11.0491363080        3.7516993551
 Na         3.9592847026        9.6068796435        5.6824723372
 Na         2.6680011128       12.0277286958        4.0437584455
 Na         2.0261825121        4.3164817938       17.1565823103
 Na        18.7761333864        9.1708266031        8.3821602827
 Na        16.4241487036        9.8936503165       14.9427050319
 Na         6.1288110550        4.4162348865       16.2393397226
 Na        13.8854140990        6.3682585031       19.0380453924
 Na         6.1350386102        9.7513395802       -0.2047236968
 Na         1.2828220762       12.9891760568        9.6951439340
 Na         8.6965601413        7.4703352850        1.5663162574
 Na         2.1288678421        9.1617088739       12.5096491398
 Na         5.5327370134        3.4790968621        8.9153857226
 Na        15.0197271636       19.4684966043       16.8674038271
 Na        13.4973224094       20.7385356418       10.5217701537
 Na         6.9439473439        7.7654861472       12.1216981288
 Na         4.1012504225       10.2925205008       16.4968171530
 Si         0.9645464722        3.2214362836        6.1259415563
 Si         8.1010368172        4.0813029364        1.0071136558
 Si         4.4641696954       12.0917426895        0.5940542315
 Si        17.8513004647       16.7203299781        6.7290615621
 Si        17.4270217142        2.3533258413       19.7825141409
 Si         1.9151541739        7.5097776757        3.2985618837
 Si        18.2754395370       12.3807138001        3.3413064728
 Si         3.4785803464        1.6517476856        5.5928552449
 Si         6.1982628889        3.9172890644        3.5721181118
 Si         9.3489116504        1.7470374910       15.8408078484
 Si        17.8519052791        2.3421983372       16.9216144410
 Si         9.8448306859       17.9645658191        2.4813682395
 Si        16.4686868739       18.7550978598        5.0232067373
 Si        14.3448853042       12.7099993160       20.3586451544
 Si        19.2572167715       17.4072423136        9.5114853534
 Si        10.7116296275        3.1957700540        2.0978280267
 Si         8.6998598023       18.3056809645       19.1209355629
 Si        12.2597226775        6.1563339813       16.3190344565
 Si        17.5611852673        5.0769561818        9.5392250565
 Si        11.4273620673        8.5048490638        0.9947295238
 Si        14.8371079310        5.1634179642        4.4846109177
 Si         3.0912190282       17.3884107102       13.4248833751
 Si        18.0153952360       12.6973631354       16.0268089972
 Si         2.6577929671       20.5483144965       19.5974335858
 Si        13.8796432752       17.4739285160       19.9193694634
 Si        14.6613339338       20.1925479776       19.9055658765
 Si        13.4621148965       16.4405582135       17.1054271520
 Si        18.0614198553       18.4472343421       17.1908043791
 Si         4.6353961783       20.6737110529        2.8498727771
 Si         0.8562905392        6.6301847406       10.2399149983
 Si         8.0728645954       15.8731348307        1.2983174380
 Si         3.6157730023       18.3023941219       17.9168043914
 Si        18.2645412297       10.4612039092       20.3581926408
 Si         7.6758698567        1.8704970953       18.4486913059
 Si        19.4552521647        7.2298683932       16.8851727206
 Si        16.7558348378       14.6363575002        1.7858299371
 Si         2.5573726242        8.8132327408        8.8913520796
 Si        16.0824284540       11.4820393423       18.1240052377
 Si        19.0775392660        2.4534044582        8.8647390865
 Si         0.3985110773        9.9811180684       15.3390474614
 Si        15.7578272135       19.9644637913       12.7690608621
 Si        15.3009599709        5.0404400648        7.4335132054
 Si         3.4920510536        3.8143426666       14.5358571996
 Si        15.5199055399        2.6301316947       14.9643169592
 Si        -0.1834217698       19.1037026684       20.1005544982
 Si         1.2337492795       14.3746960776       17.1600878584
 Si         1.5938369396        6.5613040920       19.5099874418
 Si         7.2372455308        6.4026943073       18.4716270892
 Si         4.3517239468        0.7259547363        8.4286744322
 Si        16.3280588504        4.9251854330        1.6968004822
 Si        12.4542809219        3.2005429792        4.8215098909
 Si         2.5988602869       15.8949729715        3.9011919823
 Si         0.5305479037        2.8041301927       14.5040432391
 Si         4.4555276069        7.4278359820       18.7827080366
 Si        17.1981333871       17.3144507810       11.9113606552
 Si         5.4347348427       17.7662388952       15.3851765227
 Si         1.5342958000       11.1333567359        7.2662223798
 Si        14.8784289466       16.2990730033        3.4197482452
 Si         7.3679699356       19.5634549807       13.7482077422
 Si         1.8459338368        3.9037764686        0.9867770378
 Si         1.2673768255       17.3849874935       16.1887522670
 Si        16.6100360149        7.9280876173        1.4380697413
 Se         4.4798353440        8.3365934120       13.7363753256
 Se         6.3780773072        5.9168738390        7.1534694832
 Se         5.7379313097        5.6439435683       10.6639719148
 Se         8.3175211506        5.6208432213       13.2167610728
 Se         8.0876482882        2.8951062575        9.9537864085
 Se        11.2056660276        1.1572843299       12.2253196017
 Se         3.0567613571       12.4707671661       12.1762218352
 Se         6.0732910233       12.6914899243        5.3221748560
 Se         6.8420515413        9.8160668612        9.0588913237
 Se         7.7280024620       10.6952325982       12.7808588750
 Se         9.5209578749        7.0223647580        4.2981685801
 Se        10.2353953671        7.0676385736        8.6441616928
 Se        11.0898148762        8.9270858119       13.4462745493
 Se         8.3581631713       10.8244940811       17.7358290492
 Se        12.3992472725        4.8922122137       11.1410284927
 Se        15.8048346155        7.6757794197       13.0743066861
 Se         6.8823947706       16.4765769570        5.7502090347
 Se         3.7745073841       15.0855317201        8.7555859817
 Se         7.2870950267       14.6239883504       11.0646329588
 Se        10.0012982077       13.3680007098        3.5502880871
 Se         9.5998251480       13.1657035125        8.3276415520
 Se        11.2140134361       12.2585526297       11.5040121279
 Se         9.0494210693       14.3366938129       15.0630880134
 Se        16.6364370732        8.9506315681        6.4330271367
 Se        12.8884612153       11.1836701077        5.5172733024
 Se        15.2971429844       11.9771581482       12.7370924649
 Se        12.1651074913       11.9102323288       15.9891917076
 Se        13.4728138917        9.4399146144        9.5884764377
 Se         8.4384549167       17.5067419550        9.7901783672
 Se        11.8912963807       16.4731669990       12.6969556802
 Se        11.3571890137       17.4365711693        6.6154995221
 Se        13.0589604354       15.2895554611        9.2374043180
 Se        15.7963056549       12.9409716449        8.3950899158
 Cd         5.2657383408        7.7454249732        8.8122520954
 Cd         8.1689991492        5.3262950148        9.0459548741
 Cd         3.4040018383        6.3151879219       11.7362425796
 Cd         3.2923031423        6.9696718942       15.7385512262
 Cd        10.7160648133        2.6213267731       10.1646408035
 Cd         8.1624666428        0.4632487760        8.5636086341
 Cd         3.9082046240       13.7055508886        6.4041062585
 Cd         7.0155228179       10.3152586232        6.4006734094
 Cd         5.2340184005       11.0917588871       13.3608748014
 Cd         7.0453587246       12.1614673451       16.0518620736
 Cd         6.9966170789        7.1696676075        4.7839310335
 Cd         9.5921130915        8.4800410227        6.5103890464
 Cd        10.8229560515        6.3009635358       12.9064768701
 Cd         9.2412904606        5.2814989593       15.6576108809
 Cd        12.7951285062        6.8839885530        9.5419807638
 Cd        13.3411013745        7.9360599077       14.1838886189
 Cd         7.8143810416       14.5211687570        4.3895119821
 Cd         4.7764657969       14.0950376957       11.0891532115
 Cd         9.3538259965       13.7681594718       12.5816964808
 Cd         6.6790517774       21.1817086268        5.9519853830
 Cd         9.9675054952       12.2249223810        5.8482609465
 Cd         8.0257144623       11.9878567254       10.3600167549
 Cd        11.3707662608       15.7057520159       15.1441840174
 Cd        14.1699879989        9.3374436195        1.2573240991
 Cd        14.7362787418       10.5346676230        7.2559645286
 Cd        12.6544929716       11.1344660974       13.4162149661
 Cd        13.2505322423        9.6062291834       17.1863634383
 Cd        15.4469369840        9.6448200371       11.3097691941
 Cd         8.8599811319       18.0283077020        6.0004306183
 Cd         9.7633888957       18.2756512265       12.0666180293
 Cd        13.9565817059       17.6663187013       11.1465241244
 Cd        10.4301277752       15.8049205165        8.7950565768
 Cd        17.4957055182       11.7016764376       10.1817904723
