438
 i =     5300, time =    10600.000, E =    -10932.3683857138
  O         3.9302378820       16.8179507581        3.1091485801
  O         3.5043619110        8.7910043616       10.0295764794
  O        14.1047772360        1.4230170722        1.7814385359
  O        12.1483539081       15.8975060988       16.6660207926
  O         1.3776737740        7.1240670775        1.4049052969
  O        15.7796322329       16.3183093413       11.7689517932
  O         4.1334195859       11.8672600169       18.5120392190
  O        17.6069004316       15.6512467688       19.6221464923
  O        15.5160847895       14.2586701057       20.4227443066
  O         1.6276266785       16.0523850369        2.3223081836
  O        11.3699216548        7.6098671485        0.3028117976
  O        17.8828895076       13.7917016421        2.1082563843
  O        10.9864083763        6.8671963841       16.6730616221
  O         1.5148000588       15.0245897673       18.5335392250
  O        18.1120526237        3.2463298196       18.1187742452
  O        12.0093557713        2.1089256643        8.2365015379
  O        13.6660749153        1.6311614827       18.4348247999
  O        17.1331820513        6.4564646875        1.2420869839
  O        10.8829890638        1.0025327559       15.6700842107
  O        15.4273837790       19.5301674127        5.9882111115
  O         5.0819804753        8.2084472073       20.0400551152
  O         3.2520450814       18.9690288404       12.2182530153
  O         1.2100840317        7.9035039242        8.7009004133
  O        16.1649359778       16.5958285289        7.1381239444
  O        17.3767808362        3.7290994309        1.2452278705
  O         7.7005352017        6.1916686987       16.7314029059
  O        16.1626315424        1.7228426314       19.2888030471
  O        -0.1958584118       18.5481247821        1.8861804626
  O        -0.1867743228        4.2190332218       13.4541387809
  O         2.3639570847       18.0198732253       16.9775433483
  O        11.9367149028        3.9968428285        2.8986750916
  O         0.7079648553        2.5588638939        7.4525056034
  O         4.6560414668        3.0718882350       14.0828872326
  O        16.7266491012        4.7051141224       10.5188652929
  O         5.6042405413        5.5396334197        3.6936531281
  O        11.4949645839        4.3538348071        5.5788179208
  O         4.4608111869       18.8246878725        9.2613373448
  O        14.7705318242       15.6537042188       15.7555234305
  O        16.7849507605       11.2808331393       19.4179863273
  O        15.0049898474        4.9432972549       19.8404773391
  O        18.9167252548        3.5851094094        5.2142244896
  O         3.4368625843        8.1606069792        7.4627161846
  O         4.5890576082       17.3609853213       18.4533263804
  O        13.4886957396        7.7850572665       16.2201908633
  O         2.1599407505        3.4521055742       14.8804487240
  O        16.1121114729        4.9034740796        3.1289567712
  O        14.7134366571       11.9323031453        1.8389505033
  O         9.7432946340       19.1093348457       20.2592575145
  O         6.0091548622       19.9095664186        2.4599034667
  O        17.0577555257       18.6611678072       12.5092452153
  O         5.0812124164       12.6698667167       15.0375037357
  O         0.6868170397       16.2033061888       16.1660215024
  O        11.4787894031       18.0442349020        2.9494342662
  O        17.9405740895       11.0597749369        2.3725572825
  O         9.7321047155       16.5584195211        1.6368797575
  O         0.8066556265        1.7916574056       13.3387327102
  O         7.2757189719        3.3419478896        4.0637892928
  O         0.5505050171       18.7470640658        9.5498649528
  O        18.6669812384       20.7609078035        0.4985186332
  O         3.4161047596        4.6142533053        1.0697099171
  O        17.6956031621       13.5939063193       14.6773781245
  O         0.2090836360       13.6379039154       16.6825899604
  O        14.7919477375       12.6855374955       18.4933763446
  O         0.8877302030        7.7358058227       11.4556864028
  O         8.2283018105        2.7958638151       19.7033905026
  O         0.1064593411       11.2035744059       19.4633041774
  O         3.7646666081        2.0474249399        9.0552461550
  O        10.3106186493        3.6089088862       15.0932152805
  O         0.7974394465        7.6706690075       18.3085550714
  O        12.8638357172       13.6379538312       20.0095116175
  O         6.1627681833       19.6635903156       14.3464232417
  O         3.2050358590       11.4964982081        1.7640970804
  O        14.3270561817       16.5157372428       18.3195656767
  O         2.2406732191        2.6485627155       19.1967166511
  O        19.4962468199        9.9417994258       13.6201451330
  O         7.3264795314       15.5896162996        2.1347146645
  O         0.0339120682        7.1418781640        3.7661395707
  O        17.5470966703       17.5037310164       10.0842514615
  O         9.2795079024        2.3879218986       17.2343158937
  O        13.8595118825        6.2459794168        7.4406976933
  O         2.0800454695       10.3610535160        8.5045231407
  O         1.8639149804        9.0119809983        3.2424603310
  O         8.5160906551       18.9172520110       13.2644916243
  O         3.5185696489        0.5698937726        6.7717471793
  O        12.3460354911        5.9721545120       14.5550535358
  O        12.5035736467       10.0103726025       18.9804794458
  O        15.5204271892        8.0865469466       19.1538930369
  O        10.3180465337       10.0182717321        1.1871451889
  O         7.0525949551        1.6862568455       12.3833340462
  O         8.5256657869       20.6113620105        6.1620867571
  O         2.9172357650       11.3065426984        6.2151516549
  O         3.0666154123        5.0338916197       12.9730041068
  O         5.7424781138        6.1626152285       18.3785188137
  O         1.9051347842       17.2520386561        4.8529101624
  O        17.7688829767       20.3419496312       16.7904574984
  O         2.7053190154       14.4454156334       16.1957696593
  O        -0.5127806660       18.5770072002       18.4828866473
  O         1.8229992536        4.6849533524        6.2642505537
  O         3.9531218095       20.4846907899        4.2257521401
  O        15.1367815170       17.8352093733        4.0779888540
  O         9.4539399002        4.4827114897        1.9685782788
  O        12.4247013170       18.0221477313       19.5569521991
  O        14.4151225894       17.0374816135        1.6576223297
  O        17.3026944255       12.8886809643       17.3733648371
  O        13.9430336562        6.4073006096        4.0555230499
  O        16.9009941835        9.5738179706       10.0928419730
  O         4.7776585337        8.4526138261       17.3737271889
  O         1.1723053188        5.0932497852       19.0971782855
  O         0.5613533158       12.4304800534        3.3522174645
  O        18.6319780525        6.6461972683        9.5276802148
  O        15.0043533284       18.8764330166       19.3698018292
  O         1.9778833417       10.5187269204       15.7422720057
  O        -0.0531746734        2.8108548034       15.8092370807
  O        14.2927133473       18.8796400207        9.1238976350
  O         5.9119399365       11.5989469285        1.2545277752
  O         8.8910844527       18.5096748497        3.3533254859
  O        15.0768784203        3.8261927970        7.6327214598
  O         3.1710316749        6.8791972622       18.6953926726
  O         0.5398916503        9.8550390055        6.3506418071
  O        12.5061926879        1.8625837555        4.7515843525
  O        18.6608255637       17.5985502520        7.6718121094
  O         9.5409979576       18.0276259989       17.7570824444
  O        16.8637222223       20.0237973420        3.7666956924
  O        18.4554376095        4.2643457033        8.4233368663
  O        18.8169392051       13.0753284347       10.8286529433
  O         4.0251178044        5.1272372965       15.7124638501
  O         4.8007555314       17.3404347964       13.9165424290
  O        15.7980986320       10.6113515370       16.9495842260
  O        16.6205325775       16.0214896422        2.7150837044
  O        16.5272696477        1.5086046239       13.9116894811
  O        15.8365571943        4.0915584860       13.7709187182
  O         5.9348357736        1.1414072155        7.7295107059
  O         2.0707491670       17.6343448206       14.3163633847
  O         7.7528775716       17.4898574809       19.6060116762
  O         7.8599354286        8.0559475214       18.7326435713
  O        13.7165266850       18.1145834119       16.1957683693
  O         1.9452864877        2.2289369970        5.2639101078
  O        16.5883978438        3.1472125276       16.0672526142
  O        14.0516213159        3.8238265289        4.4743464125
  O        -1.0113206045       16.4881958088       12.5277490116
  O        17.9916151495        9.0053911408       20.1133116213
  O         0.4311770002       15.9886181873        9.5574086576
  O         6.6342864323        2.8183824048       17.6471216665
  O         6.9194250184       17.3623844581       15.4871635222
  O        17.2258999107       17.6802326330       16.5655581404
  O         4.5081019222        2.9916686272        5.9556839062
  O        16.1426418162        1.5003464326       11.2806978809
  O         2.7619523475        6.4497763261        3.7306837138
  O        17.7243930460       20.9962345974        8.2928244536
  O         0.0981899260       18.7447602094       15.7130084518
  O        15.9938139143        8.7241412992        2.3650364497
  O         1.8196022961        5.6371644896       10.0642596266
  O         1.5994207855       19.3826008486       19.6068168793
  O         0.7185109803       12.3838814635        7.4566436760
  O         6.8447727371        4.6522341922        1.6543369575
  O         2.9576634325       16.1938625622       12.1873086368
  O         3.5388090606       20.3538453918        1.5772571445
  O        11.3893193594        3.5881696633        0.4879559272
  O         3.6953517972       19.9066900911       18.3010495849
  O        16.4878073096        6.0562985678        8.1130654423
  O         2.5978149670       14.6899232793        4.3783904427
  O        12.6644199043        8.9913651571        2.1282989818
  O        13.0901190284        5.1738085288       16.9709421434
  O         8.4688032888       15.0397802526       19.1220658203
  O         5.9617355361        9.1731647560        4.5604157244
  O         7.8981356958       19.9705901300       18.5468469108
  O         8.4343731211        5.5036136738       -0.2012012595
  O        14.5104876110       19.3401985413       12.9188081688
  O         1.0269332432        3.4806785465        1.9596607805
  O        18.4197480869       15.4726803215        6.0367246537
  O         8.3707462456        1.7225482368       14.8067750768
  O         9.1745209740       10.5282778712        5.1311855992
  O        17.4355918830       12.6445060460        4.3952090981
  O        18.2657937647        6.6256409129       16.7711931179
  O        19.2951147113        8.9855197374       16.2411417036
  O        14.2324010194        2.4638954756       15.3334250454
  O         4.5969809737       18.8242026387       16.0530133592
  O         0.2297320348        2.5029506617       10.1627339388
  O        14.1460636404       15.3585188884        3.8941200793
  O        17.5923745057       18.0165999607        5.2674312910
  O        15.8538067711        5.2822711911        5.6248280050
  O        10.3086494677        2.0107427139       21.9379420149
  O         4.9817722044        3.0546216918        2.7658264899
  O         1.4004723109        6.7978868384       15.7414916362
  O        18.6989101536       11.3985557224       15.6193061242
  O         4.3311891361       13.8765325398        0.9061175950
 Na        13.4483383850       14.3670267291        6.6594141021
 Na        -0.0642773321       18.9789178670       13.4571324768
 Na        14.7383753273        3.5343031290       17.8389473603
 Na        14.2057919859       17.7679433310        6.8913853743
 Na         3.8042255123       14.1381359739       18.1296470570
 Na        13.4110153731       19.5060375018        3.7141006342
 Na         5.3890219069        4.0356047319       19.1598224151
 Na         2.2998289015       18.5370965264        2.5085498288
 Na         7.1478504845       16.2397082913       17.4764014427
 Na        18.9290997047       21.0772098550        3.2288095541
 Na        19.2259433257       17.1087790556        3.6876298129
 Na         3.4294748882       16.0965025101       20.0778000212
 Na        14.8976395745        5.5875520653       15.0821379850
 Na         1.8849589739       20.3913440182       10.4565134584
 Na        11.7044957969       18.8464708054       17.3724292968
 Na         7.3436655597       16.8789210854       13.0833313595
 Na        13.4751989986        3.6099338428       20.6266717264
 Na         5.3798551423        0.6442062240       11.2952824643
 Na        20.0304153425       13.9203341769        5.1667973896
 Na        11.7238091732       20.1761132870        1.0041277546
 Na        17.0332767356       14.3541543161       12.3875967218
 Na         1.7389765843        9.8112103650        1.2586689086
 Na         4.2824726331       11.1451707900        9.5165879569
 Na        12.3795943838        3.6273004099       14.2851031444
 Na        12.6611167018        4.1754694676        7.7234360227
 Na        14.1959506682        8.7382015747        3.9768100506
 Na         0.8288080978        6.4570316411       13.5101739156
 Na         2.9126543208       12.5210269281       15.0936718890
 Na         4.1011019552       18.0450455976        5.5498728365
 Na        18.3094678199        5.9013923964       18.7222550503
 Na        12.0160413255       16.0522457758        1.4214820198
 Na         1.4918774861       16.2745791687        6.9365871402
 Na         8.1367543784       20.9136412561        2.6205181816
 Na        15.4001752386        2.2866424435        3.2148995813
 Na        19.1402247988       12.2501969902       13.1591544462
 Na        10.2145187203       15.8278163307       18.0727174528
 Na        16.7776519370       18.6030184192       21.1903519883
 Na        12.6916664710       19.5916111906       14.3874439987
 Na         2.5412858625       17.5386996928       10.1906724013
 Na        14.6781847252       17.3774175451       13.9954361623
 Na        13.3703867353       14.5413566596       11.7131615053
 Na        18.4643141579        9.0693958287       11.7610639057
 Na         4.7866676980        9.8058870251        2.3714233194
 Na        15.1237869787        5.4979294392       11.8447010171
 Na        10.9130103770       10.1960713437        3.4874246223
 Na         7.0450175515        8.3502243014       15.8912315508
 Na         5.8939053617       19.1319217664        0.1998574808
 Na         6.8168054007       13.6177255964        0.3990195456
 Na        15.7454953716        8.2537525044        8.5698266023
 Na        11.6505482168       16.1478144410        4.2588447777
 Na        16.5768604445       19.1248850812        8.3182776190
 Na         4.9489440892       14.7709890677        2.9789473556
 Na        16.9518298961        2.6180586579        6.3406087975
 Na         9.0444143879       18.5639628735       15.5566188610
 Na         6.4645288940       17.7290932938        3.0747189787
 Na         4.4014594889        6.3995859058        1.9969729806
 Na        18.3134403349        5.3853907048        6.4671786996
 Na        18.1024119738       11.8744844488        6.4676728621
 Na        17.3108976413        7.2165674134        3.8872339073
 Na         2.4884525465        4.0602114694        8.4797926742
 Na        13.0543579990       13.9787327005       17.6400911936
 Na         9.9562254845        8.5017462060       17.8445378553
 Na         2.9779432966        4.0810970973        3.3882382123
 Na         1.4007594070        7.3839580332        6.3009575876
 Na        18.8607845605       14.1396249628        8.4758373526
 Na         2.0601116917       13.5314924464        2.1653199281
 Na         7.4069845330       11.3591012372        2.8299245812
 Na        19.0151335744        9.6999630722        4.1159388952
 Na         0.5866525234       14.9117748630       11.6414947980
 Na        11.6657066062       19.1572344707        8.7567513417
 Na        16.8798155426        8.3876812067       17.0529375124
 Na         1.3324612484        3.8385562073       11.6386688361
 Na        16.4511923667       14.4348936123        5.1907466958
 Na         9.0190606578        4.5153866980        4.2735954388
 Na        -0.2974453167       13.4464786925       19.2287699441
 Na         5.9888403993        3.9712262744       12.6494002028
 Na        10.3959948544       10.2356046318       10.6533582971
 Na        10.5401777085       20.2094319740        4.2335287766
 Na        20.1119300272       19.4813196151        6.9134797080
 Na        15.7643195073       16.0197927551        9.2470107101
 Na        15.8266874172        2.7332087327        9.4149772722
 Na         3.9768672890        5.7082018893        5.5325832101
 Na        16.4019460820       15.7759930135       17.7627708005
 Na        11.2287602856       11.8605168804       19.2732371255
 Na         5.4413196079        1.8086515068       15.9600954322
 Na        12.1750185317        6.5701981902        5.5051834641
 Na         8.7633699437        3.2054649338       12.5815069554
 Na        11.9984798117       22.1942605499       17.6187575691
 Na         6.6625024911       14.3635189982        7.6609951977
 Na        10.7925935980        5.6627238529       18.6254744939
 Na        12.2536009866        6.6126415382        2.5018124672
 Na         5.9695570843       17.2929045829        8.7013456150
 Na         4.3096028749       14.7604304091       14.6469887760
 Na         1.8101872977       11.0230585749       17.9692839839
 Na        13.1425758256       13.1321314347        3.2005845310
 Na        13.7451894181        1.3742938490        7.1264800830
 Na        10.5169400724        2.3619166191        6.6305783174
 Na        -1.1312378392       19.8725188915       10.6547881934
 Na        17.4871639661        3.2520298394       12.3604771164
 Na        17.9612239265        5.1146404239       15.1237671869
 Na         9.7141543887       11.6479921980       15.2243234948
 Na        -1.6978027866       16.2359739401       14.9066799584
 Na         3.1574951542        1.2871782586       14.0586116116
 Na        13.1629769822       12.5948851224        9.4024099341
 Na        19.1279752625        4.9355917951        3.3517374591
 Na        15.1985993062       13.5284323642       14.9555275281
 Na         0.3643135791       16.4829019061       19.8462647661
 Na        16.0893623798       10.8938242026        3.6399445548
 Na         3.9781842865        9.5198693002        5.6518646734
 Na         2.4506205603       11.0885940463        3.8594384690
 Na         2.0965746665        4.6554503312       17.0170571415
 Na        18.6997685791        9.0735942543        8.0567666372
 Na        16.7256534096       10.3454342035       14.5050551387
 Na         6.1414001570        4.6156682808       16.0902158263
 Na        13.7226173502        6.7820051272       18.9185786075
 Na         6.3330400156        9.8783218330       -0.2840980365
 Na         1.4013966456       12.3833082393        9.5397740031
 Na         9.1423340728        7.9499865000        1.3717633696
 Na         2.3143426330        9.4282388621       12.1256852095
 Na         5.7865785480        3.5244165730        8.4710348580
 Na        15.1965660404       19.5093182175       16.8395902227
 Na        13.7418337440       20.6793373525       10.6855198617
 Na         6.7992779667        8.2274303084       11.7280211514
 Na         4.2467228865       10.4351994218       16.5555717538
 Si         0.9435764253        3.3635021940        6.0269077193
 Si         8.2048900735        4.2883556292        0.8773764489
 Si         4.3513494748       12.1886314843        0.7834513195
 Si        17.6862292086       16.7963287436        6.5297622958
 Si        17.5570862487        2.4891403401       19.5240310130
 Si         1.5404116775        7.4487485642        3.1480017301
 Si        18.3494668314       12.5776469626        3.0982400495
 Si         3.4939177174        1.7780625095        5.6540503847
 Si         6.1947567951        4.1152559714        3.1446472041
 Si         9.7393574109        2.1726842033       15.5721476543
 Si        17.9905549282        2.5410190086       16.6421961504
 Si        10.0101819938       18.0807467726        2.3171533191
 Si        16.2709597128       18.9581755045        4.8044908681
 Si        14.4440356514       13.0646465505       20.0926102798
 Si        19.1396014462       17.3591146991        9.3121807971
 Si        10.7286510549        3.4011148035        1.9021041594
 Si         8.8278240794       18.6704509218       18.9684884241
 Si        12.4808965865        6.4421041718       16.1622449352
 Si        17.5711653161        5.3858829115        9.3202943676
 Si        11.6314457971        9.1724534192        0.8276196784
 Si        14.9289944272        5.2517509652        4.3196106887
 Si         3.2938105770       17.5661701528       13.0410758131
 Si        18.3248767412       12.8861722763       15.9920605543
 Si         2.7544058333       20.4817162506       19.5535348551
 Si        13.9538560624       17.5837157882       19.4956241193
 Si        14.5866779437       20.5028437288       19.6627340164
 Si        13.7005460557       16.5497451053       16.6301251474
 Si        18.3007399513       18.7693001558       16.9509624093
 Si         4.7614135075       20.8222748632        2.8052020471
 Si         0.8400268354        6.9151965252       10.0294038957
 Si         8.3178683454       16.0665001951        0.9415129699
 Si         3.8350466001       18.3975157192       17.4943120597
 Si        18.1437707189       10.7105284566       20.1443840238
 Si         8.0121845327        2.1564521738       18.1784533088
 Si        19.6656830331        7.4648580375       16.6945388502
 Si        16.9164800904       14.9570756459        1.4530641441
 Si         2.6807885869        8.8016436137        8.7085789224
 Si        16.1837662732       11.7998334606       17.9746269186
 Si        18.8839578296        2.6497302763        8.7092530969
 Si         0.4638341646       10.1607798509       15.2214665472
 Si        15.9348168338       19.9580393065       12.6231616668
 Si        15.1911460612        5.4153782171        7.2830239376
 Si         3.5480207059        4.2740877091       14.3880621387
 Si        15.6608237664        2.7610224988       14.6422604985
 Si        -0.0268325324       19.3186701542       19.8758690848
 Si         1.3750448664       14.8766937029       16.9388389580
 Si         1.6788267897        6.6695189162       19.3118227779
 Si         7.4343903091        6.5940179549       18.2710515225
 Si         4.4239951574        0.7746455519        8.3044127507
 Si        16.2425990552        5.0059984635        1.4584855990
 Si        12.3408916060        3.4801317647        4.5565164852
 Si         2.5432654047       16.1609245629        3.6760235075
 Si         0.5707160051        3.0326637112       14.2593274955
 Si         4.7690056011        7.5438103128       18.6565159093
 Si        17.1506921787       17.1965232412       11.7993927778
 Si         5.7009912773       18.2060062981       15.0077270014
 Si         1.5450551079       11.0037314492        6.9654948733
 Si        15.0459164318       16.4660592091        3.1686572755
 Si         7.5364171290       20.1351687471       13.5634840722
 Si         2.0047338184        3.9742018076        0.7660771921
 Si         1.3769447407       17.6052574255       15.7953224895
 Si        16.6090440003        8.0742789551        1.0232794677
 Se         4.7252950503        8.8011313590       13.9183488328
 Se         6.7861243380        5.7449945671        6.6308817057
 Se         5.7829978536        5.9516726130       10.1943186195
 Se         8.4096209486        6.0291508240       12.9434663173
 Se         8.5424914687        3.1212287116        9.5550304654
 Se        11.3422202496        1.5231139773       12.3553532232
 Se         2.9725639036       12.4904580384       11.9593464250
 Se         6.0171128296       12.9421877542        5.0152171965
 Se         6.7628327666       10.0554094168        8.3116517672
 Se         7.6805088477       11.0361013097       12.2017739072
 Se         9.7748647061        7.1634688913        4.0059708958
 Se        10.0549107403        7.6844276701        8.6441159390
 Se        11.0520832223        9.1269716048       13.4416199305
 Se         8.4507158676       11.1005761131       17.5061535836
 Se        12.5620695176        5.1298966952       10.9035047750
 Se        15.8653997928        7.8432578513       13.5332048105
 Se         6.8027312187       16.6381088131        5.8373176181
 Se         3.7429713815       14.9580753020        8.3667207868
 Se         6.9190472946       15.0022914542       10.8919246936
 Se        10.3576497541       13.8218256484        3.7170607672
 Se         9.4168646237       13.5559765288        8.0922505837
 Se        10.9777785108       12.8616257401       11.4469021754
 Se         8.9684840532       14.7939567012       14.9366675438
 Se        16.3272501307        9.1640752220        5.8628561384
 Se        12.8448418585       11.4528835928        5.6004199848
 Se        15.1440064896       12.0613452135       12.5811720220
 Se        12.3543607688       12.0982748676       15.7426980373
 Se        13.2769290169        9.6014497989        9.5485119809
 Se         9.0569868513       17.9255499461        9.4705062216
 Se        11.8844147709       16.8884193351       12.5199110587
 Se        11.4307812240       17.7471078044        6.4010859577
 Se        12.8375906457       15.3418326647        9.1883955156
 Se        15.9288733626       13.0601883297        8.1052574617
 Cd         5.5627097576        7.5322977537        8.1358433824
 Cd         8.6380157596        5.5360230667        8.4512837369
 Cd         3.5935616023        6.5991695372       11.3089485216
 Cd         3.6093376702        7.2944042850       15.8030747924
 Cd        11.1135669741        2.9630291818       10.0219392056
 Cd         8.1628144829        0.7047743455        8.2936867557
 Cd         3.6159709234       13.3799658151        6.2113812843
 Cd         6.9727796061       10.5784988070        5.7587268747
 Cd         5.2105913908       11.3920604637       13.2043162663
 Cd         6.8078720583       12.4672193485       16.1638328274
 Cd         7.0737258160        7.2818614201        4.4358516555
 Cd         9.8399128925        8.8528154567        6.1104041030
 Cd        10.8642358644        6.4735806595       12.3607682437
 Cd         9.5259418332        5.7735697865       15.2171859869
 Cd        12.5604254431        7.0507159248        9.1571885209
 Cd        13.2688511616        8.0218288402       13.8976269256
 Cd         7.9410469600       14.7907100419        4.1317738780
 Cd         4.2491044891       14.5453570281       11.0665615240
 Cd         8.6918897325       13.6900867660       12.6446651894
 Cd         6.5813605008       21.4570475991        5.7629320483
 Cd        10.2762309746       12.2508147765        5.9322717380
 Cd         7.8559881161       12.1943678128        9.8046359260
 Cd        11.4645854117       15.3409742263       14.7145964296
 Cd        14.3673564380        9.9525387531        1.0568263760
 Cd        14.8258846874       10.8415554642        7.3147716113
 Cd        12.5000766696       11.5054028506       13.1458053387
 Cd        13.4567354740        9.9546599434       16.8416933584
 Cd        15.0695457805        9.3986064185       11.4138035378
 Cd         8.8251675665       18.2225868047        5.6475390824
 Cd        10.1032053641       18.7050664905       11.7466463491
 Cd        13.8896673296       17.6978825331       10.7695434229
 Cd        10.4933911461       15.9666764595        8.2173791555
 Cd        17.1638802604       11.7638209490       10.1415341746
