438
 i =     9400, time =    18800.000, E =    -10932.3826721911
  O         4.1124148363       16.0533725061        3.6069103702
  O         3.7243591127        8.6993404136        9.9520047662
  O        13.9464994239        0.9195438704        1.8787927814
  O        11.8687062184       15.8387871781       17.1592933401
  O         1.9696801226        7.2310433174        1.5796524462
  O        15.9176275947       16.0485797581       11.8073164009
  O         3.9914164266       11.1863504879       18.8040038421
  O        17.3426944967       15.3502176960       19.8333934259
  O        15.2813358621       13.9773645179       21.0938486073
  O         1.6406704566       15.4626395227        2.7121248552
  O        10.9800467770        7.3879917703        0.4643639630
  O        17.9860846358       13.4771883176        2.0263772878
  O        10.6412244972        6.2599247187       16.8920568059
  O         1.0417220291       14.3054192470       18.9788058623
  O        17.8895751227        2.8342712474       18.3321895023
  O        12.0909499218        1.8578650189        8.7159001676
  O        13.5508718329        1.3810650695       18.6258738565
  O        16.9852839218        6.3071572602        1.5795601252
  O        10.7230231513        0.7896923679       16.0757403076
  O        15.4613011454       19.4424356800        6.1557710536
  O         4.6156026771        8.1609677784       20.1008318254
  O         3.3680728527       18.5635934656       12.8037155589
  O         1.4171703474        7.8501381898        8.8783489818
  O        16.2575632409       16.3896167371        7.3653852155
  O        17.2801761417        3.7405226950        1.3242478814
  O         7.3560977925        5.9873260047       16.7733640079
  O        15.9018246587        1.7257288812       19.7700718166
  O        -0.4570089258       18.1369432069        1.9917910675
  O        -0.0529581293        4.4381780493       13.7042983910
  O         2.0744518704       17.5973500990       17.5106130060
  O        11.7136337046        3.7913453306        3.1872702607
  O         0.7304267649        2.5304537230        7.5307264640
  O         4.4108192140        2.5084471579       14.5612785536
  O        16.9052597646        4.5593922932       10.6467122070
  O         5.5521832820        5.2989850064        4.0140674045
  O        11.5009140641        3.9148821607        5.8056468924
  O         4.1662319899       18.5569576161        9.3403065184
  O        14.2399864124       15.4943046861       16.0269293892
  O        17.0364243785       10.9184780351       19.2361566350
  O        14.9539066501        4.7170477796       20.0950371461
  O        18.9132122064        3.4247415800        5.2653472435
  O         3.7107779770        8.2334913556        7.3609991876
  O         4.1053248587       17.1629780446       19.1773350368
  O        12.8697989684        7.8294781124       16.5587991280
  O         1.8624126526        2.8715442157       15.1475703578
  O        15.8168858840        4.5295827907        3.3543930848
  O        14.2154858039       11.5861492353        1.8747008193
  O         9.4341432422       18.8493178945       20.2862672933
  O         5.6654754688       19.5791404014        2.5424627141
  O        16.8400548818       18.5147882879       12.8499591737
  O         4.8755999430       12.3081772357       15.5295462976
  O         0.6371001631       15.6972437247       16.5229481715
  O        11.0380978161       18.2887941021        3.0283907734
  O        17.9487733879       10.9127735389        2.5049748123
  O         9.5335977066       16.3643043942        1.9406189295
  O         0.0273100256        1.7056928012       13.4629429765
  O         7.2813390096        2.9928156021        4.0716863604
  O         0.6550179679       18.4513508916        9.9747165882
  O        18.3545953927       20.6010787014        1.0203781140
  O         3.3244778003        4.6230542680        1.4150939966
  O        17.6811318579       13.6837951995       14.8486068374
  O         0.0056876463       13.1872828740       16.9745664467
  O        15.0484897285       12.6513630165       18.7804777781
  O         1.0724953592        7.1756308414       11.5204401782
  O         7.9278860043        2.5957637401       20.0779829522
  O         0.3043425749       10.8763533397       19.9157965399
  O         3.7939607871        1.8523745465        9.4404611802
  O         9.9952559533        3.1876948268       15.5527778261
  O         0.6220906916        7.3557699446       18.6196058063
  O        12.8130240314       13.6018902821       20.0791891437
  O         6.3930472433       18.7297870135       15.2538597380
  O         3.3991786849       12.1569971758        1.8587247362
  O        14.1505194768       16.4360504329       18.5235868015
  O         2.2563231638        2.5295679982       19.3926910241
  O        19.4618320134        9.3308243904       13.8117968790
  O         7.0328471480       15.3515088900        2.3824253311
  O         0.5227537070        7.4494845396        4.1120664046
  O        17.5464434911       17.7438863891       10.4996015087
  O         9.1797466404        2.0916412502       17.7560408518
  O        13.8182626942        5.9957995599        7.7579584761
  O         2.2594916818       10.2767210711        8.4445739840
  O         2.6085938322        9.1440339848        3.3153956920
  O         8.4846828592       18.3144487669       13.8665677699
  O         3.3526149684        0.5472615802        7.0600420786
  O        12.4916658335        5.9772565621       14.8857389400
  O        12.0526639219        9.8384500093       19.2393323525
  O        15.3369907774        8.0001617659       19.5191659851
  O         9.9122320319        9.6618945946        1.5016452332
  O         6.8939297972        0.9468304766       12.9554632365
  O         8.6685974091       20.2373299419        6.3605254248
  O         2.7833288534       11.2767666346        6.0152691841
  O         2.8695035692        4.2524301335       13.1181326723
  O         5.6322998443        5.9586733360       18.8678169112
  O         1.9569440240       17.0197346853        4.9122413689
  O        17.6559944031       19.9847030775       16.7472161876
  O         2.6116468514       13.8979430784       16.6887913758
  O        -0.9141128739       18.3773025634       18.7255525075
  O         1.5488094860        4.7732160129        6.2719264202
  O         4.0446119302       20.1233724978        4.5004147738
  O        15.4139242241       17.9467004144        3.8852774734
  O         9.4810840330        4.3901365081        2.0074706306
  O        12.3949919798       17.8713344068       19.7220553312
  O        14.2669582124       16.6328242525        1.8978487450
  O        16.9345689307       12.3850988858       17.0810758548
  O        13.6575173155        6.1469440881        4.1899116471
  O        17.5663139682        9.5369611514       10.2142287169
  O         4.7094859365        8.0726507520       17.3642209212
  O         1.1349783918        4.9270520443       19.3780068334
  O         0.4441994344       12.3490187886        3.7022152164
  O        18.6964021522        6.4671160019        9.7821309560
  O        15.0686267007       18.6243374702       19.5175619195
  O         1.7302195585       10.4959659798       15.8418765504
  O        -0.6887277210        2.9858089197       15.8159619307
  O        13.8864507733       18.7724719356        9.2033416245
  O         5.8907210823       11.3657080235        1.5553771661
  O         8.4606041683       18.4071930644        3.3634612604
  O        15.2056019037        3.7356316766        7.8167517919
  O         3.0667869533        6.4869367725       18.6767854680
  O         0.5786644476        9.7235755091        6.3832812126
  O        12.3976365670        1.5824873522        4.7071125301
  O        18.6435625792       17.8039175915        7.9875031380
  O         9.1260831364       17.6665194351       17.6812937639
  O        16.9549804191       20.0447224390        4.0615681877
  O        18.4346139761        4.2335833888        8.4270846559
  O        18.8405540983       12.8689288757       10.9818466461
  O         3.5882159789        4.7879828494       15.7185444444
  O         4.5060896736       16.9279404853       14.5968073065
  O        15.2404559672       10.4179295847       17.1991877451
  O        16.5587196724       15.7430711170        3.0258788312
  O        15.9224793839        1.1032375340       14.2126147046
  O        15.9136478461        3.9586969203       14.2628708132
  O         5.8179310933        0.7647429424        7.8845664397
  O         1.9567983308       17.3688576657       14.7274276530
  O         7.5370623847       17.1603904994       19.7732397830
  O         7.6361072898        7.6941443535       18.7707164058
  O        13.3699020621       17.9472507640       16.3404958553
  O         2.1193442579        2.3224213003        5.4273539418
  O        16.1356451795        2.5368852769       16.4063145034
  O        13.9001194206        3.6670358749        4.7890917077
  O        -0.9635177885       16.4411863278       12.8665891490
  O        17.8985042689        8.7105686400       20.3752710632
  O        -0.3173956083       15.8186179499        9.9108081320
  O         6.4092229091        2.6710917553       17.8811489506
  O         6.1326596652       16.0687863384       16.3537499740
  O        16.8414331156       17.5158607686       16.7362034890
  O         4.6733323709        2.8307384170        6.1421196457
  O        15.9969284449        1.4191722113       11.6024042096
  O         2.9689168113        6.5961370444        4.0745641603
  O        17.8420690599       20.9397474659        8.6201145773
  O        -0.0656283456       18.1117823803       16.2046537439
  O        15.8664769442        8.5704074427        2.6554974795
  O         1.9442045467        5.3795693071        9.9308679490
  O         1.1889553281       19.5337790321       19.8722354604
  O         0.5668910491       12.1305318401        7.4135497693
  O         6.7475013470        4.4297709613        2.0068895725
  O         3.0486035446       15.9193852600       12.6135947238
  O         3.2407780861       20.4524819860        1.9770465782
  O        11.3402851034        3.2167895199        0.5774303907
  O         3.4408394639       19.7146525721       18.6194444822
  O        16.5964005358        6.0941996352        8.2992946159
  O         2.3640392925       14.4875480527        5.1055222034
  O        12.3603010321        8.7591916790        2.3321732701
  O        13.0028727954        5.2185634558       17.4141496532
  O         8.4241245132       14.6866506071       19.5191255502
  O         6.0465953609        9.0776679468        4.4094754278
  O         7.3836584458       19.6953699042       18.7985366854
  O         8.1910199747        5.2623266925       -0.0716649236
  O        14.2583990139       18.8773181191       12.6555717312
  O         0.9808612282        3.4210061236        2.2592145150
  O        18.7263660166       15.6322101499        6.4539905260
  O         8.0422253213        1.1274184717       15.4025251652
  O         8.9782152448       10.4061705765        5.5454092179
  O        17.2355247999       12.6950865105        4.5580100513
  O        17.9622232929        6.5965626583       17.1513086055
  O        19.0679530584        8.8606477935       16.5656088349
  O        13.8602486109        2.4533954082       15.1684691826
  O         4.6561467895       18.4127108806       16.8744705732
  O         0.3063215997        2.6321513617       10.2979411727
  O        14.2314765962       15.5292298652        4.4534023056
  O        17.5385629162       17.8103972700        5.4672739766
  O        15.7440056799        5.4655576751        5.8435516910
  O        10.1046378859        1.7938442475       22.0301944530
  O         4.9399546795        2.7889979483        3.1271919335
  O         1.0891829634        6.6235700454       16.1113423193
  O        18.5444025805       11.2045638296       15.3061111824
  O         5.0281571172       13.5867478121        0.3482429282
 Na        13.3796357835       14.3482629720        6.3434354893
 Na        -0.7009452221       18.8930793207       14.0609815624
 Na        14.5031846349        3.5084436194       17.9655139485
 Na        14.2852139945       17.7026173523        7.2432770929
 Na         4.5519477029       13.0565685674       17.6562648057
 Na        13.1358295205       18.9803274542        3.7755003323
 Na         5.0035357684        3.5028149939       19.5197785582
 Na         2.0661768186       18.4781346290        3.1668531756
 Na         5.9328278460       15.6181756594       18.7601267522
 Na        18.7928168071       21.5455569053        3.3025058574
 Na        19.2123131402       16.6496265022        4.0861843435
 Na         3.2327091188       15.3216463350       20.0666464879
 Na        14.6940644865        5.6331774586       15.3654137441
 Na         2.0207392463       20.4387167912       10.7011166477
 Na        11.7802349148       18.8709480486       17.8392357006
 Na         7.8847222596       16.1837825641       13.2338571904
 Na        13.3081504794        3.3126881280       20.8694787145
 Na         5.5193507320       -0.1319604510       11.1814364235
 Na        19.7869735266       13.6126949791        5.5818260801
 Na        11.7246161490       19.8691631180        1.5921938881
 Na        17.5031756191       13.9420389923       12.4200923452
 Na         2.2992138620       10.0049954543        0.9409336717
 Na         4.7869475290       10.7145730892       10.2250210594
 Na        11.9644780082        3.5284746752       14.3176521731
 Na        12.5283139584        3.9976177273        7.9368491831
 Na        14.1893068857        8.3138896073        4.1733250398
 Na         1.1138154479        6.3425064361       13.6739139637
 Na         2.3464048341       12.5887014136       14.8953607908
 Na         4.2295045339       17.6717101069        5.4424388460
 Na        18.3147653105        5.5940190717       19.1142722515
 Na        11.0979147168       15.5452050753       -0.1182906614
 Na         1.5949212142       16.3648581677        6.8742888215
 Na         7.7413497634       20.4620318932        2.7307720657
 Na        15.2146148352        1.9463400442        3.5671943491
 Na        18.6524491559       11.1086423214       12.7338023900
 Na         8.2719472810       15.2974050144       17.1330085480
 Na        16.6498482282       18.3171920945       21.3813366851
 Na        12.6789830888       19.7622948035       14.6395857518
 Na         2.6166306407       17.3747257407       10.5628438485
 Na        14.1906177261       17.0958224806       14.2871447365
 Na        14.1369020636       14.2501411752       11.4309101883
 Na        18.4983043287        8.1529109040       12.0555811594
 Na         4.8012845008        9.4430381898        2.5430201849
 Na        15.2938194658        5.4543978815       12.2423357603
 Na        10.5772529656        9.7630871640        3.6922646439
 Na         7.0289880992        8.2166266858       16.0738736004
 Na         5.6493280436       18.5095472036        0.6139368409
 Na         7.3485592333       12.8540808805        0.5675960734
 Na        15.8190324916        8.0777543966        8.8748462386
 Na        11.3616457584       16.1322919106        3.6451528750
 Na        16.2740907091       19.0456245616        8.5291385302
 Na         5.0471258696       13.8175339667        2.7644936687
 Na        17.1954931105        2.1455647406        6.1884745559
 Na         9.8966394104       18.0840023086       15.5713288320
 Na         6.0683340461       17.2791311879        3.2543644103
 Na         4.4636312407        6.4186880992        2.2954832917
 Na        18.2480397389        5.4103069707        6.2744723975
 Na        17.9121337976       11.2261388805        6.3725998258
 Na        17.8361632784        8.0636506315        4.0532882381
 Na         2.4751062441        3.7074483925        8.6529450631
 Na        13.3081444128       13.8197784595       17.7455602334
 Na         9.9391825678        8.2593267304       17.7686099437
 Na         3.0171989809        4.2880298036        3.6939670353
 Na         1.8307890997        7.1760187518        6.2288275886
 Na        19.2248080231       14.1456341021        8.4462903230
 Na         1.4947333044       13.3725411778        1.8306744333
 Na         7.6377155915       10.8959820458        3.1646008131
 Na        19.9938719983       10.1646510492        4.2959026900
 Na         0.6636506997       14.9743762900       11.8974181995
 Na        11.5746373539       18.7774309855        8.5309325945
 Na        16.4780147288        8.4634560351       17.5645712361
 Na         1.0042341536        4.2379862963       11.5925971618
 Na        16.3379610475       14.5926645476        5.5944319211
 Na         9.2781868959        4.3334857689        4.6152109067
 Na        -0.9998410282       13.1863706864       19.1223674700
 Na         4.9663825840        2.8211147029       12.4329342151
 Na        10.1016756006        9.7798171606       10.1020436257
 Na        10.3326738684       20.0390488194        4.4636604610
 Na        20.1056430037       19.6325831294        7.5393374338
 Na        16.5101517865       15.5439745448        9.4329220946
 Na        15.9013128485        2.6584028300        9.7135234569
 Na         4.2092623888        5.6649302007        5.7987230909
 Na        16.1489445359       15.7389605353       18.1754057808
 Na        10.9564892111       11.8829428224       19.7069462166
 Na         5.5196307910        1.4423250783       16.1398095717
 Na        11.9493396638        6.0090734519        5.8677269768
 Na         8.5088003081        2.7472919450       13.0586785600
 Na        11.7313884174       22.1253257818       17.4929818118
 Na         6.4704563276       13.7406947732        8.0617632929
 Na        10.6796025202        5.3151752379       18.8910838393
 Na        11.7862824516        6.4593719693        2.5122196948
 Na         5.2328645618       16.7231821956        8.6215764177
 Na         4.3308516105       14.7290503951       14.9275051860
 Na         1.8012649462       11.2371400300       17.9106156541
 Na        12.6804178353       13.2304107386        3.2504627044
 Na        13.7169605783        1.5377822957        6.8096924601
 Na        10.3966741924        1.9328911846        7.2664111222
 Na        -1.0320028536       20.0009548948       10.7308608527
 Na        17.4131954947        3.1465630033       12.5192142500
 Na        17.8295098339        5.1718692243       15.2512393629
 Na         9.6879654310       11.3133690472       14.8450813559
 Na        -1.6093509939       15.9034454220       15.1402786761
 Na         2.7442554064        0.9515761402       14.1905783590
 Na        12.2237271134       12.6473869934        8.7040952652
 Na        19.5685284088        5.2748885253        3.5317328294
 Na        15.1448325127       13.4988269283       15.3943518169
 Na         0.2633716157       16.1237724747       20.2265311223
 Na        15.7208336296       11.0982086753        3.8351125726
 Na         3.9801128463        9.4256175231        5.3320127072
 Na         2.6389324442       12.1402911638        3.9015440828
 Na         1.6261602668        4.2888639616       17.0950904614
 Na        18.7798292839        8.9532294964        8.3547264607
 Na        16.1778455534       10.3423156663       15.1284478391
 Na         5.7720935437        4.2953111925       16.3499472784
 Na        13.5331286962        6.8997913235       18.9178412978
 Na         6.3876912275        9.6011586718       -0.2461890829
 Na         1.2742979676       11.9662430673        9.7751106039
 Na         8.7587144331        7.5464673529        1.3372030665
 Na         2.3344778243        9.1922463833       12.0534875491
 Na         5.4631782406        3.0950113084        8.4763826436
 Na        15.2581283810       19.5787868456       16.9745515325
 Na        13.3964503654       20.4889847706       10.7177012746
 Na         6.8719678747        7.6100972834       11.9109952940
 Na         4.0162590458        9.9477774675       16.5652210670
 Si         0.9607129932        3.3199716865        6.0953539128
 Si         8.1058636252        4.1473120536        1.1428972126
 Si         4.5211174789       12.0731089539        0.7417748782
 Si        17.7374971068       16.8435375252        6.8471698950
 Si        17.3799966235        2.3670947028       19.7774394216
 Si         1.9700162592        7.5943024293        3.3418460695
 Si        18.2611040529       12.4093722269        3.2990287887
 Si         3.6122636475        1.6849341144        5.8219194878
 Si         6.1523050247        3.9375524579        3.4831400078
 Si         9.4289620204        1.7792693226       16.1329675103
 Si        17.6862706614        2.2612961108       16.7920297376
 Si         9.6444811924       17.9839568096        2.3250097561
 Si        16.3069057112       18.9031821722        4.9954226268
 Si        14.2635991574       12.9286633079       20.3349530611
 Si        18.9418007788       17.4109355885        9.6166819282
 Si        10.6353015610        3.1076307439        2.0189482173
 Si         8.5343254506       18.3643930802       18.9752957870
 Si        12.2678062386        6.2870712950       16.4669663058
 Si        17.6236252365        5.3311009109        9.4400680776
 Si        11.2624805564        8.9210293886        1.0548295447
 Si        14.7315295221        5.1038841004        4.5949459576
 Si         3.1654631955       17.2043424438       13.5592075396
 Si        18.1848822755       12.6529590481       15.9665706292
 Si         2.5742003111       20.3650827636       19.8453205032
 Si        13.8856754398       17.3906617921       19.8395178918
 Si        14.5142793852       20.2235846309       19.7767554710
 Si        13.3890452491       16.4851579695       16.9291105152
 Si        18.0695574367       18.4197800977       17.1566978474
 Si         4.5830117430       20.5761718436        3.0010606759
 Si         1.0155045075        6.6877415689       10.0085249697
 Si         8.1161494334       15.7688819566        1.2827218597
 Si         3.5622998745       18.1628815245       18.0742861663
 Si        18.2523642725       10.3551236489       20.3279679306
 Si         7.6858775947        1.9499064941       18.5449598436
 Si        19.3572945933        7.3121909922       17.0672641841
 Si        16.7830929912       14.6860014721        1.7335918398
 Si         2.8690810213        8.7921257409        8.6288759928
 Si        16.0180736923       11.5000614693       18.1142709605
 Si        19.0213219605        2.7292241299        8.7874987956
 Si         0.2979869240        9.8980100508       15.3762469168
 Si        15.6752912398       19.6862222969       12.7334326456
 Si        15.2823990580        5.2817367270        7.4970981825
 Si         3.3285060889        3.7018060370       14.5643622264
 Si        15.3920476760        2.5592170060       14.8234464370
 Si        -0.3025470931       19.0844850512       20.1412655464
 Si         1.1967806378       14.3320134683       17.3196987771
 Si         1.7613957353        6.5731432215       19.5044204999
 Si         7.2228136227        6.2387742368       18.3798184235
 Si         4.3072801464        0.5750739168        8.5217467262
 Si        16.1161455160        4.8631590350        1.7244891916
 Si        12.2980411944        3.1610672313        4.6480245472
 Si         2.6210901693       15.6998572632        4.0299558442
 Si         0.3282422501        3.0085865280       14.3792482487
 Si         4.5772545004        7.2747124657       18.8171149266
 Si        17.1689186618       17.0752527470       12.0670696940
 Si         5.5458443717       17.4587176615       15.8052319685
 Si         1.5040278023       10.9182916491        6.9764923601
 Si        15.0324183483       16.3960695977        3.3659401393
 Si         7.4567172787       19.4719943775       14.2022394863
 Si         1.9487367605        3.8950430725        1.0948962858
 Si         1.2612749547       17.1852111818       16.1478894419
 Si        16.4756515495        7.8889665423        1.2989696441
 Se         4.4194150296        8.0908856473       13.7456634956
 Se         6.8792542884        5.2991609836        6.6993118521
 Se         5.5961784203        5.3245022193       10.1796528504
 Se         8.2082787396        5.5935864022       13.2835488274
 Se         8.2568103840        2.7920887655        9.7674168223
 Se        11.2619996655        1.3791458226       12.5159006218
 Se         2.9801740744       12.0671403003       12.1435045398
 Se         5.8859820129       12.6866214413        5.2842189787
 Se         7.2365749629        9.5758787241        8.6171829390
 Se         7.4070271996       10.2396527605       12.9638897835
 Se         9.6502284281        7.1592519435        4.2137413387
 Se        10.3839144415        7.0782767635        8.5419569789
 Se        10.9648989924        9.1684871635       13.0927822656
 Se         8.3986405413       10.9694534502       17.6211280724
 Se        12.4267163695        4.9767599975       11.4207015459
 Se        15.7926432878        7.8068590150       13.5068878641
 Se         7.0137560710       16.4101642244        6.2168259135
 Se         3.3600596979       14.6649926303        8.7392874941
 Se         6.8321474143       14.5214774185       11.0019519000
 Se         9.8827507679       13.3170397581        3.4066969144
 Se         9.3560432678       13.3998627523        8.2916336319
 Se        10.8708426164       12.4170497045       11.3280078650
 Se         8.7632580281       13.9584532972       14.5742062613
 Se        16.2886656201        9.0394226480        6.2902738489
 Se        12.5218936963       11.4063202459        5.5854524179
 Se        15.4427964182       11.8969734473       12.7455345621
 Se        12.5514251094       12.1192817222       15.5158793578
 Se        13.3817526899        9.5253422479        9.9145494058
 Se         8.6614997754       17.8368202584        9.8151046976
 Se        11.5944282076       16.2364118268       12.8301171682
 Se        11.2141175277       17.4181766531        6.2240773531
 Se        12.7590985789       15.2961256220        9.1518475808
 Se        15.5335800269       12.7471017050        8.3403331901
 Cd         5.5275397532        7.4360198806        8.6711412035
 Cd         8.4197851800        5.2216192479        8.6854619445
 Cd         3.6232868485        6.2114379793       11.6389797510
 Cd         3.3160284285        7.0473253462       15.8073239023
 Cd        10.8246260153        2.6370620974       10.3582278524
 Cd         8.0279468237        0.4553947394        8.4269472794
 Cd         3.6537464590       13.3870463203        6.4943831419
 Cd         6.8858941063       10.3566760272        6.1509527006
 Cd         5.0180152948       11.1061194942       13.7144455516
 Cd         7.0048146154       12.2406174738       15.8236407740
 Cd         7.0458747161        7.1008941804        4.8052539891
 Cd         9.4566099615        8.6973602552        6.7826456347
 Cd        10.4775146632        6.4464463640       12.5011922293
 Cd         9.2174733753        5.2786000368       15.7111427363
 Cd        12.7556439943        6.9542639211        9.6772856191
 Cd        13.1492527588        8.0431747253       14.1983790959
 Cd         7.8822282586       14.6697314026        4.3503495169
 Cd         4.2595717866       14.2212597519       11.1930641345
 Cd        10.6850051805       15.0790067906       10.6260129260
 Cd         6.7308828847       21.3277322854        5.8981912189
 Cd         9.7902359674       12.4321864909        5.9203343856
 Cd         8.1795782280       12.4259509570       11.8673671709
 Cd        11.2762135558       14.9494437537       15.1864297617
 Cd        14.0499065555        9.5884788461        1.2032344644
 Cd        14.4344422112       10.5732586647        7.3301752274
 Cd        12.6968125569       11.2340487830       12.8559328593
 Cd        12.9171220825        9.9802606248       17.1909216265
 Cd        15.6604061657        9.5253361096       11.3788651078
 Cd         8.8012650695       18.0909791831        5.5205041689
 Cd         9.8397006864       18.5398683774       12.0971998331
 Cd        13.8745463366       17.4214796345       10.8109597435
 Cd         9.9255236596       15.8458116101        7.8870278725
 Cd        17.3450809397       11.7042499765        9.9728882389
