438
 i =     6700, time =    13400.000, E =    -10932.3438746803
  O         4.1935898721       16.5621616278        3.3527438457
  O         3.4282300328        8.9096431418       10.2649756498
  O        13.8618287985        1.2606569800        1.6891683458
  O        12.1128438922       15.7779744988       16.9913493363
  O         1.8383871676        7.2810561946        1.6204437129
  O        15.8625802136       16.4260313492       12.0355011456
  O         4.3671231459       11.4955056699       18.3719916311
  O        17.4027269440       15.8310179051       19.9094547998
  O        15.3475244181       14.0907276836       20.5505028409
  O         1.7466467195       15.7951158151        2.5721111482
  O        10.9998913308        7.2471245117        0.9415800325
  O        17.9030168606       13.8041162199        2.1302196949
  O        10.7937465706        6.7388713632       16.9491151147
  O         1.4625381919       14.4611652300       18.6895594299
  O        17.7376501666        3.2011929809       18.3392929188
  O        12.0273378896        1.8870496827        8.7018757380
  O        14.0992139709        1.5545475929       18.3814091016
  O        17.0088670663        6.4689421883        1.5897381223
  O        10.6097998553        0.6856535831       16.1231803887
  O        15.4721620208       19.2290207829        6.2995308393
  O         4.6112555430        8.3023672472       20.0425351707
  O         3.0541565238       18.8645977103       12.5627795312
  O         1.0927114207        8.0175050477        8.9459457274
  O        16.3588188590       16.5511904246        7.3378174120
  O        17.4756268979        3.8231039957        1.5296965646
  O         7.5969687515        6.3029779394       16.9287800124
  O        16.1111063305        1.7859226279       19.8580334828
  O        -0.2817877865       18.6436240807        2.1383574624
  O        -0.2763797386        4.3453744050       13.7528801172
  O         2.4101135911       17.8486265393       17.4124040702
  O        11.7966836634        3.7667139778        3.2558842801
  O         0.8660869465        2.6721323501        7.6591267511
  O         4.4674630814        3.0993335362       14.2041116034
  O        16.8946046265        4.4365433173       10.6391078932
  O         5.3928280214        5.1882860757        3.9711234556
  O        11.7030841438        3.9384881805        5.9209042861
  O         4.1351620794       18.7226714639        9.2448455693
  O        14.5417753752       15.3425240564       16.0523488860
  O        17.0661259770       11.0749639654       19.2163264959
  O        14.9640681401        4.8281803465       20.2892189317
  O        18.9730602722        3.4566701145        5.3205718413
  O         3.3182823259        8.2638428135        7.6545546826
  O         4.6780133102       16.9794030710       18.4711428704
  O        13.5251767587        7.6106908857       16.8289974770
  O         1.9789620868        3.3543029091       15.0044851398
  O        16.0479154267        4.8827704088        3.4103876226
  O        14.3959287494       11.8466731654        1.9756263791
  O         9.5359482246       18.8121646775       20.4226493634
  O         5.9049533663       19.6866642656        2.6375084983
  O        17.1607104680       18.8349158936       12.5629949908
  O         5.0879994429       13.0227048662       15.1919790021
  O         0.5385677356       16.0233466090       16.4636626539
  O        11.4209907011       18.1398367933        2.8179455570
  O        17.8563673767       11.0604180387        2.3713773871
  O         9.7641692965       16.4271442873        1.8211073595
  O         0.3312532418        1.7861986020       13.5774545636
  O         7.2517719250        3.0441780238        4.1962334993
  O         0.6703425998       18.6393470547        9.9388032046
  O        18.6847330638       20.9594556944        0.9612763238
  O         3.4577000995        4.6655520464        1.3788873885
  O        17.7362824221       13.8177395843       14.7935605591
  O         0.1301581935       13.3243320501       16.8796751274
  O        14.7630987369       12.2651301377       18.7237928568
  O         0.6580156657        7.4824117485       11.7479484274
  O         8.0193442202        2.4933502356       20.0105373790
  O         0.2340006769       10.8880818205       19.6437425338
  O         3.7593180507        2.0725094069        9.3248340060
  O        10.3025420205        3.2510654204       15.3252014923
  O         0.4387726314        7.3987741199       18.6246249066
  O        12.8158547972       13.5361757353       20.0192032712
  O         5.8826273293       19.5559895671       14.4091748685
  O         3.3732735279       11.9317185842        1.4705332834
  O        14.1808224734       16.2877164114       18.4342227473
  O         2.6026647953        2.5805598774       19.3904872349
  O        19.6021309595        9.7796398030       13.9981073099
  O         7.2587064893       15.5697235369        2.4378946982
  O         0.4051370412        7.3656832393        3.8706340016
  O        17.7583085226       17.4724568284       10.3686667463
  O         8.8016430876        2.4702246964       17.3942604475
  O        13.8755637778        5.9058267484        7.5598690823
  O         2.1702380937       10.5546991311        8.6561156312
  O         2.4538753495        9.2526053693        3.3754180529
  O         8.2079062970       18.6747316218       13.3686909502
  O         3.2491923127        0.5594902381        7.0599288289
  O        12.4494741300        6.0901824463       14.9362043426
  O        12.4216420809        9.3926855178       19.2530950920
  O        15.3530989959        8.1054534831       19.5860687440
  O        10.2330852154        9.8569656941        1.5171705908
  O         6.9715271567        1.5796470978       12.5464750863
  O         8.6437994929       20.3909959887        6.5205206750
  O         2.6494455501       11.5960432916        6.0774438973
  O         2.8844725880        5.0511897894       13.0523204068
  O         5.6479354045        6.0674449772       18.7836768665
  O         2.0495006547       17.1736760369        4.8695712269
  O        17.4656863738       20.2694177051       17.1178202238
  O         2.6086275579       14.2529594117       16.1843483261
  O        -0.8633743555       18.6203837231       18.9196846946
  O         1.7578405128        4.7379231116        6.2274981743
  O         3.8888809558       20.2236631806        4.4575345175
  O        15.2238481307       17.9035264195        3.7837372631
  O         9.4102477174        4.1655686480        2.1214870053
  O        12.3770126602       17.8349616465       19.5763032330
  O        14.3653375482       16.8310237525        1.6469458100
  O        16.9405916704       12.9046918524       17.2610747778
  O        13.6872933447        6.2103642488        4.1598810171
  O        17.4069327265        9.8732616737       10.1526402082
  O         4.6916238223        8.0927283772       17.3185449413
  O         1.1118002168        5.1050279178       19.5659655461
  O         0.5574941053       12.3624531221        3.4126791786
  O        18.5089196150        6.6018909813        9.7317531375
  O        15.0094650374       18.7785521657       19.4911375714
  O         1.7853795692       10.4931510961       16.2559120947
  O        -0.3139543840        2.8071864663       16.0769352347
  O        14.3065407619       18.6324084153        9.4727843733
  O         5.9432901801       11.1720374061        1.2105894191
  O         8.8620843770       18.2565080292        3.6100596387
  O        15.1435182126        3.4992944912        7.7123141356
  O         3.0194445679        6.5339824792       18.7079389152
  O         0.8241793386        9.8033448168        6.4986299728
  O        12.5368200094        1.5858309096        4.9886390212
  O        18.7570361468       17.7147516699        7.7888671768
  O         9.2567814906       17.7781866784       17.8568359034
  O        16.8209849064       20.0554527245        4.1757504110
  O        18.4527839171        4.2402204203        8.4885217173
  O        18.7684200106       13.2785555795       11.0814637196
  O         3.6651561328        5.1448324699       15.6761897808
  O         4.5649220604       17.3364666187       14.1923256801
  O        15.5567068212       10.5868162120       16.9397445170
  O        16.2617941085       15.5715758389        3.1218190948
  O        16.2932025684        1.5115421031       14.0859185335
  O        15.7744114021        4.1013908964       13.8870162349
  O         5.8913685390        0.9019323316        8.1057383472
  O         1.8741539364       17.6317000010       14.6417976917
  O         7.5229828338       17.2568979806       19.8488494742
  O         7.8935907057        7.7313955034       19.1230774457
  O        13.5814358389       17.9122943344       16.1836198776
  O         1.9571211573        2.1526939995        5.4362302580
  O        16.3967686329        3.1204731391       16.1325666402
  O        14.1829931696        3.6054207633        4.6835632749
  O        -0.9119130850       16.5007649415       12.7824615525
  O        17.8240334999        8.7877345983       20.2539039903
  O         0.4886627360       15.9193988475        9.4384619962
  O         6.2711604078        2.6563196960       17.8498987281
  O         6.7457433737       17.3979510149       15.7794872744
  O        17.0236800750       17.7187457670       16.7877808918
  O         4.5350410483        2.8845916548        6.1637856936
  O        15.8705245553        1.6110912931       11.5083288860
  O         2.8784344966        6.6185592707        4.0087827910
  O        17.9499506981       20.9930822873        8.3855051130
  O         0.1089407538       18.5969778827       16.3327859609
  O        16.0608130985        8.6639497703        2.7675482103
  O         1.6789969819        5.6932658152       10.1820706619
  O         1.4241496595       19.5719730462       19.6509956067
  O         0.4183537861       12.2973029882        7.5446516033
  O         6.6818264083        4.2837991278        1.8609079375
  O         2.8253865781       16.1400724265       12.5210194339
  O         3.3857160878       20.1588061941        1.9097837383
  O        11.3928355873        3.1886183861        0.5983763984
  O         3.8148743798       19.4647722627       18.8892105661
  O        16.4321705382        5.8717201309        8.4555582979
  O         2.7545452547       14.6308358563        4.7152216644
  O        12.5524595581        8.6716733385        2.4698953827
  O        12.9186111788        5.0868450988       17.5238711796
  O         8.5582721563       14.7520115487       19.5054701883
  O         5.9134938033        9.1068238604        4.5348701115
  O         7.5919747613       19.6400725789       18.6173175173
  O         8.0898833327        5.1663996956       -0.0792739621
  O        14.6091474136       19.0077500657       13.0656841226
  O         1.2407550477        3.4195431765        2.3269037955
  O        18.5963532758       15.4526764003        6.3481420108
  O         8.2484520331        1.4937774979       14.9451419690
  O         9.0722631808       10.3006671534        5.4576530323
  O        17.5062165250       12.6134997234        4.5283856728
  O        17.9153470900        6.6167006821       17.0539805005
  O        18.9198565426        9.0277854926       16.5704226781
  O        13.9213007132        2.6332340973       15.2167949017
  O         4.7385118719       18.8782947266       16.4749810497
  O         0.2893839958        2.5070104335       10.2359891396
  O        13.7856362105       15.5259159707        3.9957669601
  O        17.6495458372       17.7954516028        5.3768734483
  O        15.8332665078        5.3284023363        5.9411367436
  O        10.1949727752        1.6334950927       22.0275329731
  O         4.9436190770        2.7468982281        2.9966687070
  O         1.1563765985        6.9343090899       16.0799753141
  O        18.5293750356       11.3894356688       15.6567548618
  O         5.0882844968       13.7494828409        0.4697302347
 Na        13.4737304535       14.6201086770        6.2970502518
 Na        -0.0967360906       19.0625806373       13.8057821395
 Na        14.8547696654        3.5544121354       17.9311773645
 Na        14.1229972783       17.6442181507        7.4512303123
 Na         4.3505831668       13.8960373199       17.6531777953
 Na        13.3935508263       19.2544948719        3.7102198521
 Na         5.1171169806        3.5964443393       19.5537848482
 Na         2.1314191131       18.6083275223        3.0503229509
 Na         6.9572255535       15.9512367763       17.8197158126
 Na        19.2546058393       21.4029847112        3.4457186212
 Na        19.2281255666       16.7487633378        4.0995585649
 Na         3.2946267137       15.7442023924       19.7702192567
 Na        14.4639915487        5.3587579698       15.3708996460
 Na         2.2242822927       20.1321047607       10.6238406882
 Na        11.5923321800       18.4865754932       17.2419346471
 Na         7.4582155692       16.4678430217       13.3506983837
 Na        13.3976968947        3.4647250674       20.7219603284
 Na         5.0434364628        0.3680732229       11.8192309964
 Na        20.2133443398       13.5107920093        5.3437679252
 Na        11.5639068224       19.7089162406        0.9842657468
 Na        17.0410385748       14.0655682546       12.4583069153
 Na         2.1417188610        9.8908589800        1.3289233163
 Na         4.3449946088       11.0397607886       10.0624137698
 Na        12.2312624256        3.7919928938       14.0778675301
 Na        12.6651569245        3.9164017491        7.9851653026
 Na        14.0850154686        8.4629939435        4.1013341364
 Na         0.9242660607        6.4604321894       13.8228226909
 Na         2.5903879508       12.3833866662       15.2183112011
 Na         4.0992848852       17.8889024245        5.5205099272
 Na        18.3174160055        5.6464386769       19.0950152370
 Na        12.1309305989       15.5565636827        1.7961142341
 Na         1.6836918004       16.0633758588        6.7839703533
 Na         8.1279916880       20.5254848315        2.5115915090
 Na        15.2791024582        2.0982404066        3.3017428218
 Na        19.2309436057       12.0634038888       13.0541245367
 Na        10.4161886300       15.9421317677       18.5945372756
 Na        16.8747614730       18.1487351153       21.3322347154
 Na        12.8257124085       19.9328109401       14.6755442624
 Na         2.6065390526       17.1845560344       10.2610915237
 Na        14.5773929581       16.9864954520       14.3398456852
 Na        13.0339864835       14.2747265710       11.6105873504
 Na        18.3081642438        8.9224663905       12.1606316122
 Na         4.8003233737        9.7581590780        2.5680490030
 Na        15.3437335372        5.0548365865       12.0010958899
 Na        10.9097388387       10.0925029649        3.7732093381
 Na         7.2016367262        8.0554345086       15.5157217442
 Na         5.7182582912       18.7063819247        0.5432181024
 Na         7.4733282627       12.9884664809        0.8677227938
 Na        16.5481632878        8.0522934177        9.3261866023
 Na        11.4471640041       16.4867415011        4.3460298729
 Na        16.5596541145       18.9724518325        8.6194449695
 Na         5.1726239529       14.5488566105        2.4668383062
 Na        16.9334279977        2.1348595013        6.3753346076
 Na         8.9663604751       18.1686164384       15.7474753131
 Na         6.3913245323       17.5835071246        3.2788644133
 Na         4.5431071362        6.4622586830        2.1834748867
 Na        18.2044913152        5.4065064783        6.2082904089
 Na        17.8708749587       11.6043801996        6.4829773319
 Na        17.7365958303        7.5687354695        4.0426924711
 Na         2.4111918583        4.1049051643        8.8064748340
 Na        12.9270685412       13.7332372110       17.6931676994
 Na         9.8961004451        8.3268958813       18.2563619987
 Na         3.2848068192        4.2742395226        3.7730618244
 Na         1.3336985122        7.5556290485        6.4578458688
 Na        18.5759680886       14.3485931117        8.3011714303
 Na         1.6216271020       13.3922762656        1.9498051153
 Na         7.9491591511       10.6859048648        3.0043295948
 Na        19.5059373494       10.0827105482        4.3931991384
 Na         0.6907138014       15.1484628037       11.6837774318
 Na        12.0256154047       18.9495634382        9.1450393545
 Na        16.6466330651        8.6006762488       17.8219293495
 Na         1.0015735824        3.9627891805       11.7462789414
 Na        16.4297594941       14.4142025023        5.6641803053
 Na         9.3523036051        4.0473580003        4.8241645905
 Na        -0.7286170864       13.4141831787       19.3117214531
 Na         5.9835811283        3.7431168504       12.7757062971
 Na        10.6686533818        9.9012830979       10.4940033983
 Na        10.5399976299       19.8268893303        4.4557092863
 Na        20.2057084706       19.6168192999        7.5964837373
 Na        15.8266964788       16.2558199798        9.4731222383
 Na        16.0403364018        2.6853118161        9.5663327777
 Na         3.9945951540        5.5694338197        5.8209068574
 Na        16.2688331817       15.6931098668       17.8806652796
 Na        11.0998621782       11.6343588475       19.7020804224
 Na         5.4405957018        1.7190619982       16.0186418998
 Na        12.1548422560        6.4089390862        5.8137673281
 Na         9.0776965787        3.0879001910       13.0225762869
 Na        12.2316491309       22.0090837749       17.2744999613
 Na         6.8151908451       14.3649436303        8.0452036947
 Na        10.7230578505        5.2997475682       19.0399786081
 Na        11.9639719326        6.2842609110        2.6897022262
 Na         5.8378661305       17.3742652929        8.7176959912
 Na         4.0665395359       15.0284542760       14.6524282921
 Na         2.0255072266       11.2286482979       18.3809289547
 Na        13.5470781493       13.3069781070        3.5899486641
 Na        13.9525076359        1.5504952536        6.9342139423
 Na        10.7281402290        2.0105138071        6.8551971006
 Na        -0.9268634536       20.0668643175       10.9639536900
 Na        17.4542477500        3.3836870659       12.4581038659
 Na        17.6219018857        5.3158347268       15.1156505421
 Na         9.6757576262       10.9662580067       14.9427070874
 Na        -1.2964307855       15.9915119607       14.9471880798
 Na         2.5653444004        1.0961257542       14.1083496056
 Na        12.1951805241       12.5552555313        8.8085055573
 Na        19.7444104067        5.1044307233        3.6203106398
 Na        15.0833681384       13.2592597895       15.4188326738
 Na         0.2373339168       16.2377047363       20.3145350056
 Na        15.7853778084       10.9442180022        3.8626298843
 Na         3.6786920910        9.2993772003        5.6152724255
 Na         2.8415267168       11.7322439511        3.7117386173
 Na         1.8081954590        4.4745838555       16.9358331904
 Na        18.8026460997        9.8308368064        8.2187387842
 Na        16.4405622285        9.9165188755       14.9415228294
 Na         5.6799476252        4.9553761654       16.3546480515
 Na        13.7272504578        6.6544645870       19.2612439475
 Na         6.2872062166        9.6392676846       -0.2853006878
 Na         1.2755534213       13.0042442483        9.6891966275
 Na         8.8669302153        7.5345849621        1.6747883275
 Na         2.1416801630        9.5244624624       12.2760520550
 Na         5.4176947993        3.5095023716        8.8217102786
 Na        15.1721926945       19.1091722900       17.0750654889
 Na        13.9081313861       20.4759050922       10.4902918877
 Na         6.6522711932        7.9243091176       12.1215124599
 Na         4.1676826641       10.2985495012       16.5021319291
 Si         1.0029286602        3.3202448821        6.1362709366
 Si         8.0870802169        4.0743990083        1.1188974476
 Si         4.7224094505       12.0892668631        0.5325372148
 Si        17.8066000719       16.7879922670        6.7750306005
 Si        17.5247198087        2.5418221087       19.8547894347
 Si         1.9192260880        7.6917409978        3.2979646212
 Si        18.3350976589       12.4483735453        3.1622796738
 Si         3.4617143117        1.6878125146        5.8574904557
 Si         6.0994689202        3.8603647073        3.4180912523
 Si         9.5834319766        1.9018108420       15.9820914302
 Si        17.7055062668        2.4701215436       16.8224515477
 Si         9.9075346298       17.9357282085        2.4172653312
 Si        16.2903710760       18.7923756037        4.9739145599
 Si        14.2673926512       12.8902719141       20.1456313090
 Si        19.2250094005       17.3710575689        9.4229680960
 Si        10.7718764756        3.0739424366        2.0792251223
 Si         8.5579200176       18.3626824766       19.1410406973
 Si        12.3466256634        6.4359348766       16.6390814077
 Si        17.5614663538        5.2452862582        9.4403136001
 Si        11.5164970610        8.8582446114        1.2110891130
 Si        14.8353322211        5.1782494507        4.5341771369
 Si         3.0778737850       17.5094410494       13.4206038002
 Si        18.1872478656       12.9133470222       16.0083876203
 Si         2.7892721254       20.4240062307       19.7871238316
 Si        13.8947898162       17.4796128528       19.5673141574
 Si        14.6640791795       20.3730731780       19.7257195099
 Si        13.6268338467       16.4137075157       16.8381568336
 Si        18.0764328627       18.7313790089       17.2833733992
 Si         4.6407808438       20.5618638349        2.9917517834
 Si         0.7081921123        6.9423584619       10.2421570145
 Si         8.2626900953       15.8536950669        1.2362560635
 Si         3.9381049811       18.2277351222       17.8094432749
 Si        18.2210528306       10.4841087682       20.1668862257
 Si         7.6325373545        2.0506240222       18.4486852686
 Si        19.3204252411        7.4590376241       17.0183949863
 Si        16.6667572412       14.8565732215        1.6399397195
 Si         2.5500309879        8.9466268875        8.8681248700
 Si        16.0741327519       11.6335066582       18.0176797011
 Si        19.0354345783        2.7031836506        8.7804960436
 Si         0.3314224016       10.0902062176       15.5894828933
 Si        15.8531547017       19.9524827847       12.6929428312
 Si        15.2357700231        5.1154955604        7.4924924320
 Si         3.3233139667        4.2135885468       14.3863061272
 Si        15.4530552657        2.7582505965       14.7100777004
 Si        -0.0585123215       19.4018013370       20.1463636447
 Si         1.3067605801       14.5144930501       17.0926951742
 Si         1.5873449368        6.7040912630       19.5506444805
 Si         7.2602258016        6.3921965121       18.5010418416
 Si         4.3292187188        0.7336577194        8.4974271414
 Si        16.2958933672        5.0438834497        1.8152561321
 Si        12.4706719081        3.1590145393        4.7049107110
 Si         2.7270480349       16.0503777413        3.8384068588
 Si         0.3611228719        3.1253197399       14.5022064460
 Si         4.4750959379        7.4158268002       18.7435867256
 Si        17.3063234865       17.2017941867       12.0104505125
 Si         5.5728880202       18.2378133528       15.2550787893
 Si         1.5141479465       11.1255162921        7.1059199062
 Si        14.8656752544       16.4379727452        3.1768965575
 Si         7.4383309675       20.0546823817       13.7398979876
 Si         2.0870270961        4.0048058920        1.0460716788
 Si         1.3109369224       17.5357741161       16.2803619910
 Si        16.4870653559        8.1014444285        1.4003466831
 Se         4.6026338539        8.8224740519       13.8746908474
 Se         6.6278734057        5.6795665665        6.9298243814
 Se         5.7865315382        5.8633582524       10.5265737616
 Se         8.4108832155        5.9348818667       13.4425327450
 Se         8.5455368629        3.0987894931        9.9286932101
 Se        11.4920483608        1.3264166519       12.4034499110
 Se         2.8114774600       12.5085346016       12.3142835304
 Se         6.1243945832       12.6994833357        4.7346256215
 Se         7.0512492704        9.7882222829        8.5462482853
 Se         7.6671293449       10.7507463030       12.5948947662
 Se         9.4523843606        6.9559344225        4.4526282844
 Se        10.3803204647        7.2926745326        8.8550168989
 Se        11.0876684319        9.0218079914       13.0257915365
 Se         8.4560656434       10.9032372715       17.3358005818
 Se        12.5597521153        4.9139074825       11.1781907046
 Se        15.7139838185        7.7238930706       13.0567957451
 Se         6.7007381995       16.4436057384        6.1173645326
 Se         3.9121358301       14.7744722628        8.5849516999
 Se         6.7900040060       14.5768541046       11.0990886549
 Se        10.5173703706       13.8480215209        4.1500298252
 Se         9.3200805752       13.4148678709        8.4549369112
 Se        10.8558259621       12.5290103443       11.7720880034
 Se         8.7953819139       14.5519877590       15.2691012472
 Se        16.8634003101        8.9058715066        6.4241767551
 Se        12.9285855781       11.2336166072        5.5564893793
 Se        15.0140882095       12.0399229985       12.8968667966
 Se        12.0729515945       11.7962925050       16.1036411250
 Se        13.4697490516        9.4886101266        9.5325102209
 Se         8.8193477882       17.7762572314        9.7253694679
 Se        11.5942409131       16.5702442797       12.7410959239
 Se        11.1431814047       17.9010986950        6.6580106518
 Se        12.9707870519       15.3789036137        9.0175687680
 Se        15.7115036828       12.9654147141        8.1678262710
 Cd         5.3499580282        7.5524131894        8.5614207058
 Cd         8.5427169546        5.4506578467        8.7062360713
 Cd         3.3770834979        6.5325133694       11.5383483108
 Cd         3.2595083690        7.3620462432       15.6438161025
 Cd        11.1659863543        2.8520101747       10.3347604569
 Cd         8.1484368694        0.7936512355        8.8393589095
 Cd         4.0377469974       13.5368188824        6.2347685827
 Cd         6.7552407764       10.4679748983        5.9719122221
 Cd         5.4261378492       11.7683743656       13.4792364671
 Cd         6.7756032832       12.3399045812       16.3261007448
 Cd         6.6901176591        7.0099464031        4.6464128699
 Cd         9.4473510854        8.4987089898        6.6629869499
 Cd        10.6517766785        6.3428455154       12.2274557009
 Cd         9.3838010207        5.3328354749       16.0045163633
 Cd        13.1054254417        6.8994225574        9.4630668939
 Cd        13.4002503062        7.9097240444       13.9984185960
 Cd         8.1558656954       14.7743265795        4.5516676316
 Cd         4.1631446535       14.5907834873       11.3106519642
 Cd         8.7908028782       13.7104942777       12.7838116794
 Cd         6.7187686704       21.3151018773        6.0947977155
 Cd        10.0038816488       12.1031771229        6.1876263285
 Cd         7.9070345758       11.9533069458       10.2113686900
 Cd        11.0755727081       15.6061606002       15.0068093740
 Cd        14.1484206337        9.7413432887        1.3416771468
 Cd        14.7678420842       10.4476069286        7.3217754540
 Cd        12.4366345822       11.3967400682       13.3897015369
 Cd        13.2470231709        9.7119099574       17.1257415626
 Cd        15.3043809025        9.9172584244       11.3099761503
 Cd         8.6241981833       18.1660450795        6.1275538242
 Cd         9.9573890563       18.6205357413       11.9306172751
 Cd        13.7790939019       17.5800664206       11.3429616172
 Cd        10.4796305599       15.9966004119        8.2478608867
 Cd        17.3309955718       11.9896750685       10.0108687129
