438
 i =     6100, time =    12200.000, E =    -10932.3651471828
  O         4.1364422246       16.5365725801        3.4528746462
  O         3.5001353601        8.5118078971       10.0562226651
  O        13.8900802764        1.3375196165        1.9515923565
  O        12.3448207039       15.5663380497       17.1128010759
  O         1.6744972835        7.2882144415        1.5896636022
  O        15.9414000573       16.3524798096       11.7338316411
  O         4.0117309811       11.4965587028       18.7639960205
  O        17.8012770259       15.8301054372       19.8873833994
  O        15.8562099905       14.1396269908       20.3757530761
  O         1.5517954062       16.1078730949        2.7770030863
  O        11.2407186141        7.4096362900        0.8669927909
  O        18.2560440934       13.8031059001        2.0849723289
  O        10.7736734806        6.4138821107       16.9882570193
  O         1.4713151147       14.7457498151       18.7706385577
  O        17.6685891582        3.2379059615       18.4610556515
  O        12.1655202525        2.0733116761        8.7017400354
  O        13.7057160004        1.5487266006       18.6997809008
  O        17.0367461801        6.4557904185        1.3745137666
  O        10.8790732065        0.8700208368       16.1110682912
  O        15.4056775792       19.3171524183        6.2232459232
  O         4.3458870341        8.2741445596       20.0200915065
  O         3.1259038654       18.8224967456       12.4338942503
  O         1.1711429176        8.0102316922        8.8948298349
  O        16.3242714279       16.3497870787        7.2720781726
  O        17.3379984437        3.8666266306        1.4882455586
  O         7.4877633092        6.0081429683       16.9811266083
  O        16.0751345416        1.6771250531       19.9423977249
  O        -0.1085053708       18.6477186429        2.1218225527
  O        -0.2254857280        4.4458067694       13.8227948302
  O         2.5544393428       17.7485849873       17.0958501834
  O        11.8714347783        3.8895164235        3.1799904031
  O         0.8305314822        2.3763746227        7.7682415212
  O         4.4403385562        2.8812191302       13.9789166896
  O        17.0374815701        4.6401572861       10.9052076256
  O         5.4843966644        5.3043688947        3.9935581424
  O        11.7031464600        3.9562056346        5.8334067584
  O         4.3084252598       18.8158820897        9.2287194476
  O        14.8131897983       15.6277416851       15.8839875563
  O        17.1202593319       11.2446480147       19.1954007497
  O        14.9571037128        4.7930750860       20.0397681240
  O        18.8586226083        3.2534834585        5.4669394294
  O         3.3962210033        7.8554637925        7.2830841052
  O         4.7985157453       17.2623748945       18.3927675554
  O        13.2075122965        7.5392042550       16.6615562986
  O         1.9327852365        3.2920759085       14.9392643727
  O        15.8741676524        5.1580626782        3.2628574249
  O        14.7214682649       11.8791934991        2.0095088806
  O         9.5176434932       18.9233884522       20.4588006972
  O         5.9786349891       19.5819395107        2.6394108404
  O        17.2560846775       18.6330614742       12.6580982312
  O         5.0600220034       12.4543037616       15.3540148097
  O         0.6354866240       16.1270319255       16.4444121244
  O        11.3662174575       18.0664102003        2.9370910608
  O        17.8081487191       11.0326812041        2.3412801312
  O         9.7587297941       16.3683192730        1.6818289652
  O         0.1201538840        1.7842686314       13.8179244667
  O         7.3735177844        3.1582969358        4.1424198843
  O         0.6527568310       18.5753081446        9.7108162126
  O        18.7467606888       20.9821197418        0.9226063054
  O         3.4109299324        4.4149417102        1.3724201442
  O        17.8364959718       13.7044384261       14.7279946671
  O        -0.1393116425       13.6990908357       17.0081865331
  O        14.9185232355       12.3722757930       18.8216937895
  O         1.0448431950        7.4980689249       11.5813396789
  O         8.0202284857        2.7159767744       20.0007702468
  O         0.2619684438       10.9938365009       19.8322461465
  O         3.9494841736        2.0464363586        9.1733779540
  O         9.9806534822        3.2966589698       15.3166238788
  O         0.7110964615        7.4324611451       18.5709751506
  O        13.0411419637       13.6519300628       20.2400687899
  O         6.0986938990       19.2935188095       14.0679736004
  O         3.4121076840       11.6889728429        1.9328257032
  O        14.5179940599       16.3488595237       18.4691788227
  O         2.3386932180        2.5892116932       19.1926611293
  O        19.7245678742        9.5561419154       14.0119756516
  O         7.3082605886       15.2226671097        2.1805195694
  O         0.2227659101        7.2887479701        4.0158136464
  O        17.6696212933       17.6361590609       10.2140218837
  O         9.1367376679        2.1769074157       17.6688896347
  O        13.8085692553        6.1031882249        7.7619095996
  O         2.5269395371       10.3074478923        8.3031377769
  O         2.4692249634        8.9582746828        3.4305284004
  O         8.4647389945       18.6850518184       13.5100657408
  O         3.6068878484        0.4161937524        6.8247227938
  O        12.3781365818        5.8917095024       14.7878711551
  O        12.3682981917        9.7158648964       19.3687777583
  O        15.4695273908        8.2036321777       19.2231984411
  O        10.0968188998        9.7173911306        1.4190895769
  O         7.3126074516        1.7969472046       12.7822131731
  O         8.6686180775       20.5257406878        6.2371566815
  O         2.9746697289       11.5043596255        5.9736383998
  O         2.8134342237        5.1257524241       13.1594515983
  O         5.6844352610        6.1748559042       18.8424469870
  O         2.1509089722       17.2821311059        5.1055485115
  O        17.6109840064       20.3248378913       17.1516496924
  O         2.4441628263       14.2007120461       16.2937232522
  O        -0.5831520962       18.6892555978       18.7616167790
  O         1.6960310620        4.4767690350        6.3961126827
  O         3.8565550077       20.1282746709        4.1858362225
  O        15.2959289858       17.9134343652        3.8770833792
  O         9.5036166832        4.3546103389        2.1584596658
  O        12.4005680562       17.6771742507       19.6183448094
  O        14.2810511124       16.6722840879        1.8062909151
  O        16.7969740254       12.6046285471       16.9561415258
  O        13.7035472226        6.3063666331        4.3929379539
  O        17.1116212940        9.6169473615       10.3755194340
  O         4.5592704379        8.0350741460       17.2736397599
  O         1.1701925834        4.8776263364       19.4160927542
  O         0.5236554616       12.1404415126        3.3907224310
  O        18.6238833972        6.7392384736        9.7559548020
  O        14.9923311665       18.6904649136       19.7714156424
  O         1.9696310997       10.4183883984       16.1205114157
  O        -0.3998943763        3.2074965420       16.1868280891
  O        14.2192248137       18.8653472584        9.4093367378
  O         5.9597427355       11.3308635929        1.3038839238
  O         8.6873123016       18.1453529816        3.4723272775
  O        15.2043597885        3.6536837273        7.7760161814
  O         3.0331149025        6.4173711337       18.6206544483
  O         0.7047492542       10.0640007791        6.2400199565
  O        12.6318227890        1.7041046112        4.8091182872
  O        18.5089194494       17.8753260751        7.7718624949
  O         9.3857707026       17.7503169268       17.9740380028
  O        16.8920943425       20.1023955262        4.1760612904
  O        18.5698246065        4.3518755815        8.7149926394
  O        18.8294625095       12.9001736954       10.8780615806
  O         3.8623218201        4.9095189088       15.6254438548
  O         4.5040756988       16.9999856288       13.9140899634
  O        15.4287136093       10.3737889773       17.1294537095
  O        16.5037108678       15.7679650495        2.9466933090
  O        16.3937497279        1.2505687637       14.2442412701
  O        15.7064233703        3.8115639370       13.8980130519
  O         6.0201997429        1.1198194065        7.7624952255
  O         1.8317556500       17.5013730837       14.3985043739
  O         7.5711240380       17.3203983034       19.8302812112
  O         7.7862624112        7.9250184518       18.8302987350
  O        13.7278576382       17.9308191704       16.3855186333
  O         1.8714076528        1.9459350043        5.4198838920
  O        16.3312783807        3.0684099129       16.1870278794
  O        14.2199188029        3.7887824490        4.7034978669
  O        -0.9243529203       16.4196557519       12.6164000845
  O        17.8342565274        8.8733248962       20.1607625864
  O         0.1345354506       15.9083520341        9.3814920270
  O         6.4060982035        2.5644904694       17.9194044516
  O         6.5873756949       16.9963091428       15.5681769653
  O        17.2854031902       17.7572479784       16.6038209656
  O         4.4128389996        2.7961175327        5.8521441415
  O        16.1542933724        1.4295643118       11.6035423679
  O         2.6113259895        6.2728115530        3.8487159615
  O        17.7091769367       21.1775979090        8.6315193257
  O         0.2818055238       18.7114575619       16.1158705635
  O        15.7330161587        8.6321961413        2.5509563595
  O         1.6894869665        5.4719788821        9.9542743245
  O         1.7053880937       19.5057322049       19.9810763227
  O         0.8458265226       12.4193198916        7.5113651968
  O         6.8317160096        4.5945976417        1.8423399769
  O         2.8084390929       16.0709635578       12.2579586077
  O         3.7672386265       20.3756447521        1.5211098304
  O        11.3151910143        3.1700115694        0.6356077371
  O         3.6813139590       19.8456201647       18.1755487145
  O        16.4381195957        5.9065814184        8.5543832646
  O         2.7354004050       14.6208355051        4.7772014309
  O        12.5537390538        9.0981813426        2.5102700746
  O        13.0425706570        4.9673729065       17.1707484186
  O         8.6483240315       14.7695496406       19.2786751039
  O         5.8415063212        9.3321314616        4.3503306444
  O         7.5764322488       19.6472360547       18.7866460113
  O         8.2427932453        5.3178758737       -0.0240677351
  O        14.5931400299       19.0527326463       12.9729872138
  O         1.2453456127        3.2068050018        2.2862192046
  O        18.6486443794       15.5992530388        6.2104509495
  O         8.2648879462        1.1478985046       15.2563408168
  O         9.1272747005       10.3486568333        5.4589893747
  O        17.5404600418       12.5868718343        4.4540453048
  O        18.0757233242        6.6939116148       17.1779410526
  O        19.0204104494        9.0686463421       16.6170672762
  O        14.0804342578        2.1483820238       15.5166978536
  O         4.6041233023       18.8165653732       16.0547550774
  O         0.3620918841        2.4393572556       10.3679044536
  O        14.1078292370       15.4720344909        4.1740646431
  O        17.5050741881       17.8576613582        5.3388334507
  O        15.8245918548        5.5390520476        5.9010776563
  O        10.2546730857        1.8797280961       22.2649671225
  O         5.0880420136        2.8419568756        2.8925001414
  O         1.1084243942        6.8135270599       16.0413508085
  O        18.9384579086       11.4206801222       15.6684696499
  O         4.7320119912       13.7912740729        0.7232535106
 Na        13.4741627895       14.2820735926        6.4544178980
 Na        -0.0739463758       18.9195771280       13.7802638855
 Na        14.5643326598        3.3962011529       17.8561526179
 Na        14.1953635588       17.6353732597        7.2546505253
 Na         4.1154477325       13.3245722291       17.5257271207
 Na        13.3367122800       19.3269105127        3.6281981275
 Na         5.1019764897        3.8605458740       19.5504121964
 Na         2.0279072361       18.8515224550        3.3647230955
 Na         7.2134515195       16.0641926225       17.6373271375
 Na        19.1847299468       21.0891012337        3.4228783904
 Na        19.2197553923       16.7855371734        3.8959497591
 Na         3.9160608874       15.7931856492       19.8385605608
 Na        14.7555251926        5.3027571500       15.3970070579
 Na         2.0990941650       20.2392455525       10.3445846976
 Na        11.5409956601       18.5301566627       17.5478502180
 Na         7.6974606017       16.4785707251       12.8213720019
 Na        13.4051533725        3.3846565496       20.7115610813
 Na         4.9739504224        0.9837925254       11.5313624279
 Na        19.9927187897       13.5604299086        5.1604941533
 Na        11.4223517621       20.0544652822        1.0909036490
 Na        17.1409810769       14.2644917960       12.4123748714
 Na         2.1528985454        9.9595565496        1.3615882372
 Na         4.3884352961       10.7776658373        9.9179679901
 Na        12.2385133071        3.2978989223       14.9002853902
 Na        12.7262833140        3.8990375860        7.8904213805
 Na        13.9857019260        8.5919112565        4.2568802519
 Na         0.9808324265        6.5961271966       13.6651521829
 Na         2.4707383512       12.3883057494       15.0214886604
 Na         4.3566800690       17.9163942718        5.2063873578
 Na        18.1708014388        5.4437683319       19.0137647292
 Na        12.2643470364       15.5420365435        1.8207875051
 Na         1.4844061809       16.0158721958        6.9502922585
 Na         7.9843832561       20.4437469552        3.1483041090
 Na        15.2041303789        1.9922110681        3.9675785596
 Na        19.4521678284       11.9852619436       12.9989841808
 Na        10.5216042975       15.7617829096       18.6249320081
 Na        17.0756990378       18.2621898192       21.2571537340
 Na        12.7822039618       19.3069102546       14.6582978960
 Na         2.7055001886       17.2732855650       10.0312258343
 Na        14.8515055118       17.1054471514       14.1395737879
 Na        13.8157554566       14.2841201759       11.9600332119
 Na        18.5174874832        8.6186748522       12.0559401135
 Na         4.7782572322        9.6845423587        2.3565004854
 Na        15.2720572145        5.3132267681       12.2135406672
 Na        10.4184639120       10.0990381914        3.6839110720
 Na         6.5002927173        8.0672603831       16.0475378812
 Na         5.5018734337       18.6542828352        0.5114080709
 Na         7.2050798131       13.2556320126        0.8947472284
 Na        16.2274432170        8.0621608645        8.9075179615
 Na        11.2995656973       16.0965796434        4.3688153392
 Na        16.3343802919       19.1814456917        8.6622258029
 Na         4.8384773745       14.3467531566        3.0170659434
 Na        16.9718612850        2.2586737094        6.5334709243
 Na         8.6835283092       18.1128294021       15.7016637730
 Na         6.3313800414       17.4616540846        3.0209091579
 Na         4.4546920385        6.3389564545        2.1136517044
 Na        18.2022015768        5.1585845047        6.6768154796
 Na        18.1719099224       11.5581207407        6.4117661182
 Na        17.3333271071        7.3346163173        4.1028913100
 Na         2.3783496173        3.8328480736        8.6685090702
 Na        12.8574564752       13.4840509350       17.9466491280
 Na        10.0978552172        8.4126361509       18.2025462513
 Na         3.2426679561        3.7822393234        3.5608016008
 Na         0.9470616090        7.9696916373        6.3168950502
 Na        18.8027940506       14.1493722939        8.2614394394
 Na         1.8992956578       13.7056851493        2.2110883714
 Na         7.3564292803       10.7971360432        3.0068654066
 Na        19.5607538397        9.7419209360        4.0087412235
 Na         0.6497381823       15.1596466568       11.5696354258
 Na        11.6404070569       19.2411266590        9.1534920366
 Na        16.6490720526        8.4572523145       17.1725014372
 Na         0.8794709828        4.1526219629       11.7556553072
 Na        16.6025934605       14.6280114666        5.3124777403
 Na         9.4015931550        4.1952165158        4.6436701918
 Na        -0.4929367955       13.0831316615       19.2803093849
 Na         6.2440905319        3.8551980829       12.8165986079
 Na        10.4155799333       10.0075315745       10.3115595667
 Na        10.8141087709       19.8187770781        4.4516840153
 Na        20.1966036207       19.2907761969        7.3276428517
 Na        15.9828494783       15.4946939141        9.4110740297
 Na        15.8262838717        2.7108159499        9.7541360275
 Na         3.4943861776        5.8714209943        5.9878147566
 Na        16.6975924895       15.9957101742       17.8969953175
 Na        10.5270951611       11.6245921545       19.4352157991
 Na         5.6060655865        1.8248572577       15.9612330105
 Na        12.1579519759        6.1978462124        6.2273368354
 Na         9.0922439392        3.1629607895       12.9043315961
 Na        11.9531973505       22.0738811996       17.6420350426
 Na         7.0116369525       14.3875200953        7.7434581942
 Na        10.8606738801        5.3934363699       18.9859107457
 Na        11.8501599223        6.4951577449        2.9096262849
 Na         5.6279788924       17.1500279495        9.0148676651
 Na         4.0103651601       14.8587177310       14.7781418684
 Na         1.8854693685       11.2570482838       18.3001855207
 Na        13.0620596417       12.8633335211        3.4411926027
 Na        13.7961579485        1.2693265789        7.2887916982
 Na        10.5214127407        2.1439580580        7.1416401430
 Na        -1.1343178934       20.0538899145       10.9697534257
 Na        17.5629988299        3.1443171734       12.7172773735
 Na        17.6839309264        5.4466601855       15.3993294162
 Na         9.5897458920       10.5578324819       14.8247065552
 Na        -1.1650091193       16.0734033181       15.2312534608
 Na         2.6937630531        0.9388543052       14.2496371997
 Na        12.6481259397       12.5382956812        8.9642289779
 Na        20.0817374200        4.8042553061        3.9413434999
 Na        15.3448157100       13.5737422166       15.2532009985
 Na         0.6124754908       16.4737802011       20.0014272684
 Na        16.0904607744       11.0376046451        3.8107303626
 Na         3.9864265474        9.3335812382        5.4541559581
 Na         2.6300095308       11.4388276373        3.9405705757
 Na         1.9349837792        4.2089763464       17.0282698057
 Na        18.9548610626        9.5555219150        8.7374984753
 Na        16.5427611573       10.4933927664       14.9366134928
 Na         5.9056333098        4.3963316737       16.4753871343
 Na        13.9013774244        6.5730609177       19.0101833499
 Na         6.1463815126        9.8425056704       -0.3990821132
 Na         1.3270849380       12.8565468467        9.7092395070
 Na         8.9129644405        7.6717094702        1.4780625520
 Na         1.8841149589        9.3596560932       12.2364340935
 Na         5.5623015168        3.5908628876        8.7538287443
 Na        15.1099361976       19.5306545791       16.7782884157
 Na        13.7945996862       20.6653426191       10.9881133398
 Na         7.0253399538        8.0560285454       11.7977266954
 Na         4.2339798546       10.4163980283       16.5665539944
 Si         0.8904997503        3.1125976949        6.1803370941
 Si         8.2337155028        4.2363526033        1.2198562419
 Si         4.5705612923       12.0883439774        0.8443610375
 Si        17.7430833207       16.8659862402        6.6709230985
 Si        17.4308407332        2.4876617369       19.9868859386
 Si         1.7685347351        7.4749123715        3.2503069626
 Si        18.3527671117       12.4162303887        3.1161408677
 Si         3.4448600056        1.5556048692        5.6759133515
 Si         6.2025926373        4.0104457460        3.3230396993
 Si         9.6259534919        1.8724356703       16.0356793572
 Si        17.7001865065        2.5913662151       16.9366868706
 Si         9.8609992838       17.9101676294        2.3695890750
 Si        16.3108470110       18.8487202126        4.9700754496
 Si        14.5775111036       13.0941331451       20.3280140474
 Si        19.0347666074       17.3915122343        9.3094060835
 Si        10.7496227198        3.2097715623        2.1501930209
 Si         8.5503871619       18.4138774857       19.1893523846
 Si        12.2740784964        6.2053025893       16.3875198718
 Si        17.6053828022        5.3088337499        9.6198864089
 Si        11.5378711860        8.9385458133        1.2629259898
 Si        14.8543663833        5.2650061412        4.5459956316
 Si         3.0745504612       17.4115331551       13.1523863849
 Si        18.1768343607       12.8551514898       16.0106567838
 Si         2.9182656020       20.5117920114       19.5043395181
 Si        13.9397473983       17.3601216596       19.7070100972
 Si        14.5573716597       20.3028297013       19.9033442898
 Si        13.7973514664       16.3835536368       16.8889572894
 Si        18.3213441793       18.8455674117       17.1177572452
 Si         4.7899920031       20.5802750909        2.8732612700
 Si         0.8434106126        6.8384415976       10.1335622637
 Si         8.2913286461       15.7757440158        1.0407943642
 Si         3.9949934552       18.3433217611       17.5252180022
 Si        18.1765130560       10.4749227189       20.2193420426
 Si         7.7407815712        1.9442483369       18.5639677371
 Si        19.4210785731        7.5189771531       17.0655955957
 Si        17.1215503986       14.9210025293        1.6474041059
 Si         2.6851538624        8.6583987618        8.6747015950
 Si        16.0620037092       11.5704110524       18.0342980263
 Si        19.0557795176        2.6606851883        8.9352294871
 Si         0.5196639043       10.0075222223       15.5950192415
 Si        16.0148892792       19.8200188206       12.8631757107
 Si        15.1880443769        5.3172095838        7.5168721417
 Si         3.3927176669        4.1405879815       14.3275995174
 Si        15.4755047600        2.5231815197       14.8078967312
 Si         0.0907536387       19.4913209997       20.1296389185
 Si         1.2260460273       14.6649853167       17.1859553190
 Si         1.6961827677        6.5308677068       19.4538311488
 Si         7.3016555882        6.4538923502       18.5022112005
 Si         4.5086833419        0.7644104586        8.3259176148
 Si        16.1361924487        5.0428536797        1.6317217618
 Si        12.5468917101        3.2598386117        4.6594111060
 Si         2.5950774714       16.1125682907        3.9997940492
 Si         0.2708468973        3.2071519627       14.6101504197
 Si         4.4200326937        7.3475829269       18.6798341613
 Si        17.2933425866       17.2061930929       11.8045633419
 Si         5.5163037039       17.9669316593       14.9335196976
 Si         1.6809645942       11.1286333660        6.9416851494
 Si        14.9674339592       16.4398269497        3.2361153684
 Si         7.5833505319       20.0199955569       13.7731692132
 Si         2.0446033986        3.7576901991        1.0475491302
 Si         1.3735976319       17.4697157566       16.0077682160
 Si        16.3871167423        8.0441421333        1.1783505014
 Se         4.4813128499        8.4672879681       13.6357755356
 Se         6.5608635096        5.6343508400        6.8761543612
 Se         5.9103730565        5.7326093019       10.6648725707
 Se         8.4785711800        5.9160939543       13.2367037425
 Se         8.5306333277        3.0373185482        9.7043837151
 Se        11.4949670884        1.5288854506       12.5643646672
 Se         2.8818087555       12.1259927809       12.2189769378
 Se         6.2038570234       12.9187491226        5.3853117811
 Se         6.7756774081        9.7497920120        8.6484823255
 Se         7.5484153143       10.8202850395       12.5795045803
 Se         9.4221893694        7.1776965449        4.2672545190
 Se        10.2554162944        7.4720276337        8.7340366662
 Se        11.2247515946        8.8675372786       12.8986735150
 Se         8.1707581320       10.5795220796       17.3727252342
 Se        12.7626716032        5.2155939928       11.0834836728
 Se        15.9065924925        7.7560853110       13.8352464071
 Se         6.7965918570       16.5146827033        6.0887788929
 Se         3.3701487740       14.6977527816        8.5894185814
 Se         6.8122701710       14.4136832513       11.0283174358
 Se        10.0824776279       13.4555439837        3.6127853900
 Se         9.5762484805       13.3528308057        8.3730459675
 Se        11.1128909666       12.6047970042       11.6359698149
 Se         8.7410270258       14.5176651369       15.1523962263
 Se        16.7517389453        9.1905659224        6.2133255961
 Se        12.7595176647       11.4219150099        5.8527479559
 Se        15.2172817397       12.0646928339       12.7831149342
 Se        12.0217262179       11.7405704281       16.0785635652
 Se        13.6316808516        9.7458343896        9.5660874045
 Se         8.8843163032       17.8668966168        9.9333572282
 Se        11.7275216245       16.5467617525       12.8108644076
 Se        11.2012754430       17.7387533496        6.4381055743
 Se        13.1110401688       15.2330320180        9.0870440444
 Se        16.1265577268       12.8582264432        8.1806296959
 Cd         5.2433523205        7.3794003461        8.5637607228
 Cd         8.4126351033        5.4797039579        8.6575594695
 Cd         3.5528425476        6.4578792985       11.5864770593
 Cd         3.2470402571        7.1609567592       15.6388697936
 Cd        11.0883124582        2.9410425158       10.3590494136
 Cd         8.2149799928        0.5803255079        8.4054163621
 Cd         3.8778029105       13.4997433125        6.3520372372
 Cd         6.9889458853       10.4952081566        6.0205546583
 Cd         5.0650887140       11.2193759292       13.5466808024
 Cd         7.1619275788       12.4537993718       16.0302760052
 Cd         6.7544577525        7.3728169168        4.6894397439
 Cd         9.4322022067        8.4452086240        6.4786761194
 Cd        11.0491536839        6.1517645032       12.9570646609
 Cd         9.1270180965        5.4273490593       15.6711380971
 Cd        12.8673173931        7.2865008597        9.5605066438
 Cd        13.2940637413        8.0995442022       14.2567008843
 Cd         7.9696480233       14.7377571401        4.3884966320
 Cd         4.1404141306       14.1599205323       11.0718800906
 Cd         8.8301145360       13.1594160515       12.8736494965
 Cd         6.7257227115       21.7447580387        6.0810849563
 Cd        10.1230144075       12.3016452166        6.0481889305
 Cd         7.6631281820       12.0567339916        9.9188093563
 Cd        11.3756246480       15.3149757145       15.0639461347
 Cd        14.2926326874        9.7928071973        1.1172979425
 Cd        14.7923562798       10.6684251691        7.2246468059
 Cd        12.4804909987       11.3370734823       13.5612150348
 Cd        13.2713151089        9.6465460611       17.2696236396
 Cd        15.3794945126        9.5699343012       11.7402977667
 Cd         8.5223195823       18.2726217462        5.7897512665
 Cd        10.0870530809       18.8744670704       12.0375709204
 Cd        13.9802690748       17.4155249361       10.8809532697
 Cd        10.6312898687       16.0020743412        8.4351453288
 Cd        17.0434275244       11.7800848664       10.3322748612
