438
 i =     9900, time =    19800.000, E =    -10932.3842861889
  O         4.0350193727       16.4284932465        3.5407252127
  O         3.5140658825        8.4765507315       10.0254362269
  O        13.8306651415        1.1338142827        1.9612901395
  O        11.9139757209       15.8355338570       16.9296012863
  O         1.8183694709        7.5635207670        1.6032983629
  O        15.8098825577       16.3263370823       11.9645900820
  O         3.6679776785       11.6672256051       18.8515153913
  O        17.4060112131       15.3768479968       19.7564976797
  O        15.3884463037       14.1218133504       20.7622415122
  O         1.5515171830       16.0150191856        2.5995536808
  O        11.1616357884        7.4565610370        0.5892806257
  O        18.0241109620       13.6276243460        2.1112915207
  O        10.6591548359        6.8364984133       16.7267645685
  O         1.2026738309       14.5561263827       18.8818500032
  O        17.8345627919        3.2229473958       18.4569031658
  O        11.8677934064        2.2291991703        8.6350563080
  O        13.2934944581        1.1724513712       18.6529443460
  O        17.0723101605        6.3972697822        1.4269470858
  O        10.6895771136        0.9596622057       16.2546043170
  O        15.1202187690       19.4546383791        6.0582896811
  O         4.8496252965        8.3405138264       20.2366989484
  O         3.2361279989       18.8964814193       12.7108405718
  O         0.9797971918        8.1089111561        9.1418170623
  O        16.0956590045       16.6031126602        7.2706370084
  O        16.9756639375        3.7108269290        1.5535139019
  O         7.2184199939        5.8315037215       16.7512046319
  O        15.6688894748        1.9240142593       19.6117098293
  O        -0.6632720726       18.3123138738        1.9045299570
  O        -0.2602469894        4.2923395309       13.5745613745
  O         1.9820829845       17.7493508447       17.4103950326
  O        11.8026322792        4.0051433998        3.2485625215
  O         0.6232414265        2.7455070952        7.6328772057
  O         4.4488810660        3.2570893949       14.2822274249
  O        16.8159074015        4.6343258031       10.5695207345
  O         5.3376559747        5.2836765552        3.9024890766
  O        11.5839328277        4.3544263665        5.9477862810
  O         4.3654196936       18.9069535382        9.2400287284
  O        14.3811395054       15.6155532120       15.8247075528
  O        16.9536034668       11.1376952786       19.2843010553
  O        14.8248364105        4.9959832889       20.2454186883
  O        18.6247928513        3.3969568158        5.3985644614
  O         3.2212887189        8.1982636879        7.4319336133
  O         4.0199746800       17.6048301838       19.1139156830
  O        13.2636007656        7.8077132537       16.2808654584
  O         1.7713650549        3.3782217829       15.0038936375
  O        15.9107223178        5.1689041761        3.3607659845
  O        14.4510688493       11.7844154604        1.9294756462
  O         9.3514738372       18.9799889838       20.3043098378
  O         5.7665242038       19.6338488004        2.5695378776
  O        16.9402426873       18.7490852120       12.5691105700
  O         4.9290456919       12.5972985333       15.4017909749
  O         0.3238081361       15.9152737184       16.4858969435
  O        11.0846031893       18.4765199767        2.9168612192
  O        17.6316397515       11.0270044063        2.4974883991
  O         9.5072672754       16.5956893741        1.8754892248
  O         0.2458672783        1.6467845073       13.5811473953
  O         7.2014814944        3.3410753388        3.9868440170
  O         0.5512529799       18.7390935476       10.0743070910
  O        18.0827378198       20.6603508216        0.8771410773
  O         3.3013194586        4.8504532950        1.3832468570
  O        17.7141040280       14.0667971618       15.0128836507
  O         0.0645589000       13.3212168057       16.9591323412
  O        14.7412860906       12.5243707908       18.5868822344
  O         0.9393896963        7.4439496561       11.7061530432
  O         7.9654414374        2.7604983180       19.8978595139
  O         0.1070255549       11.0186134876       19.8884272764
  O         3.7395310884        2.0796595453        9.2729807434
  O        10.0936293769        3.3498724358       15.4460686345
  O         0.6032500388        7.8592072071       18.6649846289
  O        12.7906852577       13.6164972869       20.0628927323
  O         6.3579706048       19.0272058488       15.2343444084
  O         3.4764907215       12.4058102883        1.9596757679
  O        14.1777500492       16.4661729977       18.4048479645
  O         2.0574511651        2.8194781249       19.3893137925
  O        19.7157827425        9.7342465569       13.8920590920
  O         7.1351870121       15.5069302411        2.3502951786
  O         0.4951386953        7.7934183266        4.0454499535
  O        17.5584955110       17.4798595160       10.3758463724
  O         8.8683388458        2.3567418991       17.4908644771
  O        13.8800451866        6.1278369738        7.8058031496
  O         2.2800312173       10.4273420822        8.6542024068
  O         2.5498572377        9.3861535591        3.2995802810
  O         8.4726589521       18.6220963888       13.6510424628
  O         3.3957199832        0.6807834952        6.8476331631
  O        12.2142094418        5.9401337278       14.6797467177
  O        12.1920910290        9.8505718876       19.3190303669
  O        15.3428443483        8.1097417277       19.3993917261
  O         9.9930311693        9.6888439687        1.6742659582
  O         6.7716786361        1.1346185003       12.9062266230
  O         8.5034342468       20.6207987946        6.3061676945
  O         2.7016595153       11.3720321468        6.0904848220
  O         2.8231679186        5.1118129134       13.1649521782
  O         5.5915625310        6.1664252759       18.8633468403
  O         1.9408687150       17.0640119988        5.0262685895
  O        17.8098553845       20.3269901808       17.1710605495
  O         2.4839617630       14.5006087040       16.4733124853
  O        -0.4892789137       18.5219954012       18.6309775955
  O         1.5383637876        4.6970086189        6.1398616100
  O         3.6958655160       20.2332277871        4.2043166363
  O        15.2111629218       17.8131214035        3.9413581395
  O         9.3762430792        4.5165380215        1.9769926274
  O        12.3838558680       17.6621920096       19.7213893732
  O        14.5542357229       16.7372408176        1.6692426699
  O        16.9978883546       12.8577208509       17.2532124662
  O        13.5682024982        6.4178858817        4.1835641924
  O        17.3740519669        9.7729917928       10.5522510766
  O         4.8363794371        8.3621591677       17.3805161979
  O         1.0564777267        5.3277423903       19.4659862887
  O         0.3929966814       12.2306835984        3.5614494532
  O        18.4962090562        6.5751154215        9.9319967871
  O        14.8843235543       18.7769232772       19.6136723648
  O         1.7345986092       10.8373090275       15.9303470622
  O        -0.6340382783        3.2100401007       15.8888211710
  O        14.1258250209       19.3921383768        9.3436588049
  O         5.8531212598       11.6133075739        1.0908221452
  O         8.4769698235       18.6249736483        3.4208793287
  O        15.0334631868        3.6530703611        7.6500586958
  O         3.0606455566        6.9108742643       18.6976879230
  O         0.5119288157       10.0945921455        6.7217593243
  O        12.1448543864        1.9012171585        5.0880522077
  O        18.5328321339       17.8380063589        7.8667508894
  O         9.2911997174       17.9836816300       17.8588278817
  O        16.7067041783       20.0770190631        3.9863319860
  O        18.2210438078        4.3129891513        8.4482659558
  O        18.7068251253       13.2656316562       11.2391607456
  O         3.4977848575        5.1997711113       15.8634424206
  O         4.4372798079       17.2850131905       14.4055131861
  O        15.4417608874       10.6197134674       16.9741066202
  O        16.5634776185       15.8060533431        3.0209969462
  O        15.9604892136        1.2412735928       14.4164788225
  O        15.9199631518        4.0467628266       14.1079207694
  O         5.8638857413        1.3257222563        7.7023299852
  O         1.8070744967       17.2925326895       14.5932554170
  O         7.4713705196       17.4367587679       19.7733981882
  O         7.6366800621        7.9542719170       18.5012659648
  O        13.3117662499       17.9941657887       16.2033987670
  O         1.5485113741        2.0007635851        5.3509201842
  O        16.2433943636        2.9319449730       16.4026858091
  O        13.9764320061        3.7406779638        4.5805874906
  O        -1.0097007365       16.5083347900       12.8595816044
  O        17.8573583083        8.8857276826       20.3816192311
  O         0.4715732973       16.1708771871        9.5066810028
  O         6.1029328928        2.5952417283       17.8646980798
  O         5.9145499000       16.4808347903       16.4213811527
  O        16.9944774477       17.8685444475       16.7284388040
  O         4.0830026145        3.0199148486        5.8220127878
  O        16.0217099462        1.5611282630       11.5900814747
  O         2.9893209921        6.9624689414        4.1120942879
  O        17.7179869845       20.9289463179        8.3670230823
  O        -0.0000572414       18.5808512153       16.0501150636
  O        15.7855900598        8.4615753827        2.6472722543
  O         1.7195621175        5.6479153276        9.8347655799
  O         1.2341799894       19.7040660879       20.0679205623
  O         0.8885853056       12.5442880575        7.6989944340
  O         6.6077926855        4.6495511293        1.7348964416
  O         2.9188747353       16.2838522084       12.2584471340
  O         3.4407219516       20.4065646379        1.5425511015
  O        11.5032753905        3.4587938667        0.6789354692
  O         3.2064499673       20.1177604448       18.3494767308
  O        16.5038706174        5.9666986803        8.1981489313
  O         2.4974968816       14.4446416888        4.6723660666
  O        12.5076989207        8.8975479341        2.5112438365
  O        12.8551549257        5.3061929376       17.3187828842
  O         8.4081415337       14.9058138584       19.4118988251
  O         6.1778414651        9.0259953735        4.4408539925
  O         7.3531746557       19.8255537627       18.7088352195
  O         8.1943837749        5.4138468981       -0.1977949908
  O        14.3468720744       19.1845929010       12.8384580572
  O         0.9560431722        3.6350597034        2.3044591353
  O        18.4610457509       15.6856690846        6.1300533154
  O         8.2403894540        1.4152429234       15.0414747284
  O         9.0879242523       10.6549840817        5.6137342280
  O        17.2881369124       12.7465183858        4.5837045613
  O        18.0484349294        6.7766648560       17.0817731768
  O        19.0360202531        9.1940182298       16.5106847122
  O        13.8280801814        2.4776479059       15.2818649582
  O         4.3076634867       18.7642155134       16.6407318566
  O         0.0554347553        2.5587600761       10.1760346241
  O        13.9970452154       15.4480022170        4.0584842241
  O        17.4455329278       18.0069988848        5.5202281511
  O        15.6325358299        5.4827174273        5.8006766623
  O        10.1835432902        1.8952085216       21.9972806221
  O         4.9137302923        2.8754899503        2.6215849543
  O         1.0678352512        6.9740416104       16.1112031064
  O        18.5189590906       11.5126364310       15.2917412135
  O         4.8009105161       14.0585916834        0.3339102547
 Na        12.6157436631       15.2594780011        6.2323678976
 Na        -0.0617892932       18.9566450658       13.8902224494
 Na        14.4795572251        3.7944684792       18.2515358387
 Na        14.0677486634       17.7948449579        7.2670308866
 Na         4.1237784427       13.6141581512       17.5768561607
 Na        13.0088072713       19.2808128963        3.7692209287
 Na         4.8210710290        3.8172523809       19.5574519933
 Na         2.5125029036       18.6538496571        2.8224162438
 Na         5.6292747325       16.0373372704       18.8097505116
 Na        18.8679398375       21.4744791927        3.4981936700
 Na        19.1024199613       17.1737560538        3.7822840708
 Na         2.8472982743       15.4619376571       19.9686500049
 Na        14.4832608590        5.4276751220       15.3090375574
 Na         1.8040081335       20.5400738625       10.5581165381
 Na        11.4826366647       18.9614250300       18.2002289936
 Na         7.3347685454       16.6217867124       13.1152024326
 Na        13.4512617215        3.4320352612       21.2498074825
 Na         5.1084483926        0.2033343273       11.6422571924
 Na        19.5480274949       13.9279952864        5.4977903309
 Na        11.5806822279       20.1309187089        1.2215001958
 Na        17.2368551543       14.3250520323       12.7145175640
 Na         2.2907893995       10.1752408583        1.1213667837
 Na         4.2868047796       10.9793493762        9.8794625640
 Na        12.1314992122        3.7645990636       14.1825555539
 Na        12.6836755699        4.1466323635        8.0132595660
 Na        14.2099917024        8.6041932158        4.1688805044
 Na         0.6450795492        6.5277327020       13.7120951770
 Na         2.6099057915       12.8009358737       15.0812974104
 Na         4.0257840715       17.7662430907        5.6761395889
 Na        18.1467750450        5.7089162779       18.9081652133
 Na        10.7697645143       15.9409756147       -0.1511588601
 Na         1.3659573582       16.3392023249        7.0606735365
 Na         7.7658440091       20.8145298094        2.5141170117
 Na        15.0947020921        2.0886791331        3.5782296312
 Na        19.0608753173       11.8157094537       13.0026205902
 Na         8.1577335000       15.7754828530       16.9824603416
 Na        16.5578149163       18.8443024821       21.4825855960
 Na        12.8293380363       19.8420938036       14.7135388868
 Na         2.4279201291       17.4226663338       10.1859811691
 Na        14.4592487583       17.2290740481       13.9878127761
 Na        13.7363557414       14.3576369864       11.7992221430
 Na        18.4579491996        8.4755802352       12.1865995613
 Na         4.8469241545       10.1976360153        2.7157082399
 Na        15.0734327736        5.1737835820       12.1305880464
 Na        10.5832280419        9.7770334927        4.0175237077
 Na         6.6741686325        8.1524174324       15.8364215851
 Na         5.4872228493       18.9231771178        0.6063466944
 Na         7.3192021086       13.0172422601        0.2513560600
 Na        15.8223949697        8.0803348059        8.8894264899
 Na        11.7754239404       16.3429329059        3.0296149169
 Na        16.1809058561       19.1736593325        8.3699159724
 Na         4.8484937183       14.4883014126        2.7441820971
 Na        16.4856535402        2.6391097995        6.1657357880
 Na         9.9624061145       18.4239812516       15.5046828271
 Na         6.2743000604       17.4765925586        3.2892209260
 Na         4.3709038668        6.6072894701        2.2919550475
 Na        17.8996113275        5.5602636888        6.3859102457
 Na        17.9699252218       11.3822125644        6.4706799060
 Na        17.8370558920        8.7948525587        3.6946909638
 Na         2.3722143712        4.1522727348        8.3033486066
 Na        12.9251175257       13.7953623465       17.6706255103
 Na         9.9559290433        8.6900939530       18.0579243076
 Na         3.0848362252        4.3062025779        3.8644934897
 Na         1.1752940350        7.1368905697        5.9968554275
 Na        18.6130686592       14.1081262051        8.9265666195
 Na         1.3116533467       13.3844333066        1.8036334567
 Na         7.8689238539       10.5407823663        3.1120285475
 Na        20.1790247123       10.1749229732        4.4446157433
 Na         0.6718105855       15.3334260093       11.9143570474
 Na        11.6590834994       19.2588167198        9.0924561782
 Na        16.3369635246        8.4861713158       17.4338469407
 Na         0.9683978499        4.2807563494       11.5528317009
 Na        16.1960112360       14.7121094920        5.6160236723
 Na         9.2345283574        4.2861725416        4.8147759030
 Na        -1.0182394231       13.2548243316       19.2441443210
 Na         6.2443175452        3.4430271954       12.6351956840
 Na         9.8148960331       10.0929489469       10.2707836211
 Na        10.2545601201       20.0327336969        4.4785673974
 Na        19.7458563814       19.7098558039        7.0016746808
 Na        15.9828653684       15.8976227253        9.4860137598
 Na        15.8181863790        2.7498939500        9.5812951360
 Na         4.0805984467        5.5730351282        5.9489605588
 Na        16.3057569883       15.9004163388       17.8283704205
 Na        11.0655793183       11.7630259074       20.1750767046
 Na         5.1874102905        1.5002279014       16.3050592699
 Na        12.2082375214        6.4420212434        6.3420300364
 Na         9.2040386855        2.9465826539       13.1259468672
 Na        12.1337852668       21.9654018334       17.3256896004
 Na         7.1738721545       13.3345624953        8.2939625502
 Na        10.7054720927        5.2505212453       18.6953245947
 Na        11.8321273755        6.3449852287        2.7709710772
 Na         5.7934077564       17.0498899891        8.8712079883
 Na         4.6683329879       14.8857402699       15.0215048677
 Na         1.3992470917       11.5271680080       17.9789621425
 Na        12.9751945288       13.3863559462        3.2563925973
 Na        13.5419602088        1.3892421142        7.4682827990
 Na        10.4870162547        2.2908810933        6.8092189055
 Na        -1.4336744223       19.9937199403       10.6553324849
 Na        17.4281810580        3.1751056255       12.2560206779
 Na        17.5905335066        5.2463482840       14.9223510728
 Na         9.6027340159       10.3881770364       14.9275013759
 Na        -1.8250038234       16.3520473765       14.9391297646
 Na         2.8300280402        1.5408407665       13.9439808467
 Na        12.6288601605       12.6973322871        8.9839860993
 Na        19.1644049007        5.3019440807        3.4863641483
 Na        15.0610837658       13.6577418457       15.3678567301
 Na        -0.0108808697       16.4110845844       20.2844024991
 Na        15.4064557138       11.5591500981        3.9034424823
 Na         3.8171558516        9.2201665317        5.5275192047
 Na         2.6253084959       12.1178813939        4.0191743691
 Na         1.5032738954        4.6477681548       17.0929000409
 Na        18.6146332401        9.3970858596        8.6036635872
 Na        16.1613363526       10.2461545539       14.7895610779
 Na         5.5498589353        4.3857025992       16.3739400044
 Na        13.3284897737        6.9305305805       19.1827926461
 Na         6.5017932451        9.8569152079       -0.2236568097
 Na         1.0797533067       12.2758945988        9.9722784201
 Na         8.9483906209        7.5195882901        1.1045397635
 Na         2.3595648342        9.2841458190       12.4581160244
 Na         5.4467222536        3.4969767476        8.5317777193
 Na        14.9399563107       19.2086028211       17.2095033318
 Na        13.7322786044       20.8168844741       11.0142197951
 Na         6.8580222703        7.9247256193       11.9255572871
 Na         3.7643053329       10.3672424046       16.8779263850
 Si         0.6871667271        3.3273099851        6.0726358313
 Si         8.0681394962        4.3222086052        0.9929924179
 Si         4.4145467030       12.4711134599        0.6898060375
 Si        17.5852396199       16.8649358285        6.7365880522
 Si        17.1770335261        2.5257727736       19.8188327037
 Si         1.9685366262        7.9141467240        3.2836501495
 Si        18.1584337341       12.4248785418        3.2418794061
 Si         3.1927526472        1.7710388123        5.5989278819
 Si         5.9860242887        4.0279795276        3.1642241744
 Si         9.4662496315        1.9288872501       16.0228090908
 Si        17.7351586185        2.5076431023       16.9378267627
 Si         9.6383542581       18.1801398815        2.3607113012
 Si        16.1371284440       18.8860114691        4.9603905972
 Si        14.2883845677       12.9969817172       20.1609259615
 Si        19.0099821082       17.5463604168        9.5031310888
 Si        10.6484873561        3.3338605073        2.0921665969
 Si         8.4574459802       18.5976291564       19.0010400880
 Si        12.1793365697        6.4874953580       16.2811263751
 Si        17.4994510984        5.3625637221        9.3928499698
 Si        11.4132497410        8.9295786768        1.2679078836
 Si        14.6755226786        5.3331410798        4.4861066007
 Si         3.1249989573       17.3985088826       13.3825610209
 Si        18.1804994088       12.9558105003       16.0210793936
 Si         2.4481774074       20.6478309706       19.6314613441
 Si        13.9200678367       17.4204733671       19.7115467556
 Si        14.3299226295       20.3044727904       19.8270346418
 Si        13.3893989590       16.5551592614       16.7865175285
 Si        18.2143193213       18.6785917635       17.1979143101
 Si         4.5534391977       20.6362490057        2.7880123396
 Si         0.7833796073        6.8837257228       10.2165013632
 Si         8.1442040910       15.9842329074        1.2023759909
 Si         3.3536983757       18.4795062782       17.9452605459
 Si        18.0547404019       10.4885122585       20.3214437372
 Si         7.5369960210        2.0739763828       18.3959070725
 Si        19.3629456259        7.6893259992       17.0775781540
 Si        16.8318918731       14.8015888857        1.6806581243
 Si         2.4812577021        8.8121658197        8.7383143271
 Si        16.0942346189       11.7455656355       18.0084704795
 Si        18.7714320420        2.7274147279        8.7519282996
 Si         0.3183145988       10.2630455249       15.4099548552
 Si        15.7887791862       19.9261439370       12.8570101863
 Si        15.1672031578        5.2346781739        7.4398838412
 Si         3.2677383158        4.3584772042       14.4807039623
 Si        15.3697683710        2.7409803033       14.9290801761
 Si        -0.3833345441       19.2917499392       20.0972525630
 Si         1.1231192395       14.5911806500       17.2625120145
 Si         1.6371269709        6.8975300261       19.5288110728
 Si         7.1716733210        6.4761005729       18.2610750203
 Si         4.3220577847        0.8792835152        8.3000781904
 Si        16.0837099109        5.0915161076        1.7928494412
 Si        12.3043237221        3.4261594209        4.8503755619
 Si         2.5226014957       15.9463412927        3.9705142654
 Si         0.2942877612        3.0224961882       14.3829656625
 Si         4.5899074186        7.5553846134       18.8568143601
 Si        17.1624676304       17.2132614246       11.9990077869
 Si         5.3262673614       17.8239871669       15.7403420276
 Si         1.5386314844       11.1411910559        7.1846715415
 Si        14.9812344976       16.3294843069        3.2003677089
 Si         7.4161961783       19.7505354315       14.0651864051
 Si         1.9109432278        4.1301732623        1.0829100143
 Si         1.1116342056       17.3178601197       16.0974583387
 Si        16.4006018747        7.9743590908        1.2356248334
 Se         4.6107148689        8.3428337823       13.7839990194
 Se         6.7858760914        5.2106491009        6.6675832105
 Se         5.9794756824        5.7120172480       10.3199967991
 Se         8.3583591131        5.6891047858       13.2279353949
 Se         8.3951528001        3.1444958841       10.0208356001
 Se        11.4202330032        1.3446039073       12.4881039813
 Se         2.9928395959       12.2106409414       12.3788472421
 Se         5.8976990946       12.6175056539        5.1130397768
 Se         6.8116655921       10.1335653078        8.6833398106
 Se         7.6265174156       10.7472074442       12.8136419013
 Se         9.4837032937        7.1461111458        4.3628573158
 Se        10.1149512133        7.6525952462        8.8855959002
 Se        11.1134251130        9.0578106243       12.8179748903
 Se         8.5671967373       11.2889239231       17.5395796104
 Se        12.4549276821        5.1238419712       11.0651342078
 Se        15.7721489007        7.8075803989       13.2420820337
 Se         7.1013872320       16.5598214194        6.2037948177
 Se         3.5978252025       14.7731153377        8.6729918322
 Se         6.7952124105       14.8298420812       10.8780969869
 Se        10.0625032741       13.6878082405        3.5362874473
 Se         9.9579313288       13.9123763263        8.2674869326
 Se        10.9586797676       12.8824621104       11.1902366896
 Se         8.4600074893       14.4640881961       14.6507481881
 Se        16.3308521659        8.8673987442        6.2607892407
 Se        12.8887322227       11.6510985725        5.5573076930
 Se        14.9799562346       12.1527678234       13.0738522210
 Se        11.9231972604       11.9178729452       15.8821146711
 Se        13.4572626291        9.7182964526        9.6771337871
 Se         8.5864895951       17.9646959360        9.6876444889
 Se        11.6709495452       16.6738632704       13.0455842945
 Se        11.2404131972       17.8442549314        6.2535963957
 Se        13.1891920779       15.9221262029        9.4448692481
 Se        16.0458720675       12.9247319398        8.2661763119
 Cd         5.2946256709        7.8736462700        8.7824929623
 Cd         8.6059158466        5.5246277419        8.7137560042
 Cd         3.6123148808        6.4490259458       11.4467752796
 Cd         3.2934936834        7.4448391101       15.9214577919
 Cd        11.0187118641        2.9731338599       10.3831254429
 Cd         7.9723854264        0.9358702494        8.5365631746
 Cd         3.6785791900       13.4133954334        6.5224394071
 Cd         6.8173718963       10.3166011195        6.1713831669
 Cd         5.0955645674       11.1587686666       13.7391565101
 Cd         7.0574821918       12.2813801432       15.8007989249
 Cd         6.7376152557        7.0326212844        4.6499654191
 Cd         9.5214857124        8.8059399778        6.5815190373
 Cd        10.5619094873        6.4298764272       12.3058037837
 Cd         9.2235988984        5.4027370156       15.7236337848
 Cd        12.6805921365        7.3073984314        9.6174268529
 Cd        13.2026963040        7.8448905018       13.7686520244
 Cd         7.7169026777       14.5694381129        4.4532767355
 Cd         4.2358796224       14.2347570771       11.2395643078
 Cd        10.9689184253       15.7588551352       10.6461944623
 Cd         6.5384463630       21.8674291460        5.9200281694
 Cd        10.2810953785       12.5900721526        5.9034307877
 Cd         8.4167006110       13.2750055871       12.1964766132
 Cd        11.0906894599       14.7879787554       15.0710120418
 Cd        14.1275476995        9.6862829793        1.2538426666
 Cd        14.6035231851       10.7243899844        7.2987274963
 Cd        12.2507236159       11.5581888499       13.1148691245
 Cd        13.1268527892        9.9178366895       17.0827479021
 Cd        15.3449644923        9.9115471290       11.4456344250
 Cd         8.4688970164       18.5442017380        5.6700134955
 Cd         9.9325329854       18.5643935718       11.9741924288
 Cd        13.9301596544       17.8908966484       11.0043501604
 Cd         9.3939092145       16.2922740643        7.4380289189
 Cd        17.2977557830       11.8842407798       10.3464515726
