438
 i =     8700, time =    17400.000, E =    -10932.3443409889
  O         3.9858956281       16.4472841868        3.1099589887
  O         3.6581187702        8.8248088822       10.1467810644
  O        14.2575800096        1.2654788067        1.8764104785
  O        12.1496465094       15.6962213829       17.1476384335
  O         1.5330937574        7.2684212914        1.6256595187
  O        16.0820911523       16.1695056806       12.1288419226
  O         3.9196492354       11.4418661911       18.7325627981
  O        17.4831137605       15.5276223307       20.0297017543
  O        15.2810846687       14.2193581871       20.9055505032
  O         1.4801860271       15.7494088479        2.7522831338
  O        11.1366426695        7.4685189314        0.1709673059
  O        17.8924396815       13.4764464829        2.1202540037
  O        10.6207980716        6.3732761868       16.7112026923
  O         1.4192830261       14.6166799487       18.8901229439
  O        17.9702840900        3.0762837119       18.2311435192
  O        11.7511196552        2.0211090450        8.5391162515
  O        13.3225717242        1.2584224243       18.7219946872
  O        16.7940718960        6.3792235365        1.1637917587
  O        10.7673150797        0.8047400261       16.0591091488
  O        15.6043474507       19.5690891975        6.3578817601
  O         4.8032920927        8.2071689524       20.2055351368
  O         3.1032978732       18.7032572387       12.7352767888
  O         1.2183936797        8.0842228467        9.0641748868
  O        16.3045289347       16.4212521083        7.2691405667
  O        17.1556332907        3.8401376752        1.3635790395
  O         7.2309094872        6.0057837231       16.6819790829
  O        15.8203660271        1.9573075521       19.2239558859
  O        -0.3447583314       18.4215916796        2.0124672998
  O        -0.1568522021        4.2620581059       13.7833283383
  O         2.0655969518       17.7730134739       17.4911271879
  O        11.7708954548        3.8518517192        3.0696360195
  O         0.6998873625        2.4449794929        7.7144523827
  O         4.6410725766        2.8243721126       14.4752302108
  O        16.6753425122        4.6857497002       10.6489517314
  O         5.4069719280        5.3497779846        3.9500054221
  O        11.3104096175        3.9513508056        5.7204181037
  O         3.9379243812       18.5432427747        9.2082521048
  O        14.5041164231       15.2761047975       15.9095938174
  O        16.7853923012       11.1332760275       19.4348757706
  O        14.6066252439        4.8350314302       20.0080477195
  O        19.0232617181        3.3431969053        5.2706430404
  O         3.4951099380        8.0468015634        7.5718126389
  O         4.1541120974       17.3907083583       19.0841846172
  O        12.8936829294        7.8718784814       16.2935609435
  O         2.1009437028        3.2037783327       15.0285937386
  O        15.7555090636        4.8464408213        3.2051666400
  O        14.1799849443       11.7677294810        2.1061641936
  O         9.4550806393       18.8162399183       20.3387899060
  O         5.8025109468       19.8360051268        2.4961345885
  O        17.1172706658       18.6081744944       12.8594828905
  O         4.9122764568       12.3448491976       15.2625270050
  O         0.5345839121       15.8224411605       16.5181018480
  O        11.1437590570       18.2621453022        3.0156744221
  O        17.6995911775       10.8295267226        2.5803109243
  O         9.6120657970       16.3415180107        1.7655366354
  O         0.5625607680        1.6076627656       13.4367777076
  O         7.1944483348        3.2504967706        4.1316567381
  O         0.5572596430       18.5570977136       10.0695136658
  O        18.1075224827       20.6835584683        0.9757201920
  O         3.2740989186        4.6237403393        1.3738614507
  O        17.6824115266       13.6577162897       14.9837125699
  O         0.3344190111       13.2751815768       16.9336027588
  O        14.7140241475       12.5885631136       18.7644288418
  O         0.8237217688        7.7082205274       11.6677775208
  O         7.9720347875        2.6289041147       19.8647860181
  O        -0.0667126423       11.0778186961       19.7670115186
  O         3.8276179244        1.9565512839        9.3481684048
  O         9.9425463030        3.2897551486       15.2885105452
  O         0.6704084977        7.5568862623       18.4054193377
  O        12.6661500327       13.5867906319       20.3669024379
  O         6.1962443692       19.0454186055       14.8816711630
  O         3.4847712072       12.1571014958        1.8787720550
  O        14.4349686184       16.4456528318       18.4228688623
  O         2.2702443840        2.7455658450       19.1915040544
  O        19.1869770875        9.7391018154       13.7623520272
  O         7.1147162193       15.3098928040        2.2220961769
  O         0.0246846421        7.4967009919        3.9116098020
  O        17.6272104132       17.5165149437       10.4224752198
  O         8.8629808273        2.2002470537       17.4388835934
  O        13.8157096428        6.0736443323        7.8090007552
  O         2.1910433800       10.3925974594        8.6324318287
  O         2.1427163663        9.2611624810        3.3466946443
  O         8.3216997671       18.3666438995       13.4938816156
  O         3.3539325566        0.6663708389        6.9419162647
  O        12.2649003552        6.0685501883       14.4600278934
  O        12.0936455656        9.9451868931       19.1623602432
  O        15.2936585270        8.2793040572       19.2646601736
  O         9.9602789987        9.7514280478        1.2318551131
  O         6.8990178214        1.1515665331       12.7017135826
  O         8.5110517277       20.3154377956        6.4624957492
  O         2.7736897064       11.2730520200        6.1681948092
  O         3.2679854948        4.8607289271       13.1748211197
  O         5.6777455729        6.0917457037       18.8334655568
  O         2.1464266613       16.9859289049        4.9059177325
  O        17.4936076886       20.1824082123       16.8175370405
  O         2.7180569350       14.3605776290       16.3717952023
  O        -0.9092764220       18.4750167932       18.7281127880
  O         1.5592681664        4.7624183573        6.6663949147
  O         3.9484427489       20.2379412682        4.4045084216
  O        15.2699828859       17.8100772085        4.3202531478
  O         9.1914637697        4.1816832801        2.1556230044
  O        12.6082189116       17.7914268452       19.8145850888
  O        14.5817463116       16.9303765433        1.9784427836
  O        17.0993314540       13.0263266077       17.5226772675
  O        13.6376365122        6.3265541099        4.2259259664
  O        16.8895574794        9.5781847360       10.1498075027
  O         4.6041008888        8.1285710405       17.4639061094
  O         0.8750488290        5.1097240601       19.4741510709
  O         0.4141660076       12.3625777766        3.6697570438
  O        18.6993453732        6.5590045662        9.7794124016
  O        15.1727084734       18.7033360719       19.5697826907
  O         1.6752943790       10.6860456613       15.5464537455
  O        -0.2319004053        2.7616123334       15.9273181705
  O        14.2734205099       19.1872435379        9.1622956338
  O         5.9480444337       11.3522557590        1.2577729595
  O         8.4032822939       18.1987625285        3.3912560021
  O        14.9129476088        3.5490090615        7.5735029391
  O         3.0361667612        6.6471385139       18.9430827034
  O         0.5711551301        9.7935124265        6.6392660154
  O        12.5759411185        1.6857955325        4.7852094257
  O        18.6028620593       17.6746028900        7.9900561365
  O         9.3675786172       17.7434298588       17.7654195464
  O        16.8359499791       20.0459611502        4.0471973932
  O        18.4946385774        4.3346110728        8.5606338023
  O        18.5638021508       12.9825446736       10.9637266189
  O         3.7365374671        4.9112740583       15.8873852918
  O         4.5351450889       17.0103714038       14.3154044046
  O        15.6501334733       10.8471492079       16.9588938665
  O        16.5334210164       15.5797959145        3.2746766356
  O        16.0100976677        1.3791586448       14.1358565948
  O        15.6108847406        4.0935373272       13.8872537462
  O         5.7752861941        0.7144229480        7.9178252158
  O         1.9237575967       17.2317807357       14.7336077399
  O         7.4890477543       17.1622659248       19.6703829328
  O         7.7405109376        7.7794167931       18.6314124942
  O        13.5800612655       17.8249790198       16.2345751576
  O         2.0421112804        2.4232590698        5.3534304037
  O        16.3952423043        3.0738258306       16.2154590389
  O        13.8623714197        3.7954354021        4.7322882881
  O        -0.7032078411       16.5789606589       12.7727989458
  O        17.7178802916        8.7819312419       20.2552801121
  O         0.4317191599       15.8249234101        9.4661661769
  O         6.1901733363        2.4934260903       17.9280088246
  O         6.1849639007       16.5122890554       16.2296032727
  O        16.8419403064       17.6762187011       16.6458599136
  O         4.6041015014        2.9822107122        6.0693489389
  O        16.0421829704        1.3689690624       11.4905788666
  O         2.5751312462        6.7440391658        3.9608943257
  O        17.7072649159       21.1232759389        8.7897635550
  O        -0.0309924806       18.3559292148       15.9996736156
  O        15.5733497528        8.4670493883        2.5673902990
  O         1.8522504540        5.6692265806       10.4787749364
  O         1.1921570128       19.8932892607       19.7427114002
  O         0.7103694434       12.3593270405        7.5873236892
  O         6.5653339285        4.4799718791        1.7775491292
  O         2.8611023607       15.9744869074       12.5569838271
  O         3.3576507595       20.4284566859        1.6989088616
  O        11.1538312286        3.3369574443        0.5040119062
  O         3.6062700169       19.9043715666       18.5155832720
  O        16.4025560277        5.8222322746        8.2731732598
  O         2.7793836793       14.3226837953        4.6309845094
  O        12.3594960649        8.7453288200        2.2984772045
  O        13.1171059089        5.3758660499       16.9111184725
  O         8.6075341214       14.6679673303       19.2769998702
  O         5.8331878623        9.1812065848        4.5880155440
  O         7.5983822394       19.6567054484       18.6940758608
  O         8.2077499229        5.2438898763       -0.1175082514
  O        14.4115360174       18.9669137397       12.8465608314
  O         0.9832026724        3.3552129241        2.1996156967
  O        18.6952166636       15.4762409984        6.4555076406
  O         8.2195270803        1.1811298072       15.0229585272
  O         8.8538302409       10.2801234743        5.2932573237
  O        17.3244244261       12.6313295542        4.5579544737
  O        17.9767587790        6.6746117804       16.8343740204
  O        19.1386972170        8.9397431032       16.2789895582
  O        13.9228229815        2.3595248884       15.4751886537
  O         4.3875894919       18.5927984780       16.5666956276
  O         0.2309951269        2.4773850835       10.3419760274
  O        14.0214747268       15.5480629479        4.2914557457
  O        17.7052650015       17.8831792263        5.4802228725
  O        15.6831267961        5.3767602399        5.8813282986
  O        10.2109968473        1.7601340357       21.9001252242
  O         4.7085842547        3.0262812978        2.9531905793
  O         1.0588416823        6.6017780418       15.8490052608
  O        18.3544017130       11.1804990838       15.9596455984
  O         4.9997157261       13.7381301335        0.2380856492
 Na        13.3952578344       15.0297878023        6.3231458406
 Na         0.0861459188       18.7217867633       13.6355955414
 Na        14.2635666073        3.6407736740       17.7011709886
 Na        14.3016778501       17.7767764269        6.9185752597
 Na         4.2456809656       13.2608492727       17.4502401616
 Na        13.3873894578       19.1799047043        3.8415730341
 Na         4.9045079789        3.9360209657       19.3579460055
 Na         2.2061058306       18.2963523690        2.8921715378
 Na         5.6112981637       15.7514689103       18.6532261199
 Na        18.7824363769       21.3049741995        3.4274564588
 Na        19.2696991719       16.8803233798        4.1795161564
 Na         3.2791450559       15.6729409265       20.0629080233
 Na        14.7798195559        5.9403542519       15.3842401785
 Na         2.0633924063       20.2608879592       10.8966270030
 Na        11.8986909004       18.5255781881       17.5533873440
 Na         7.3870054026       16.2853869572       13.5185130056
 Na        13.2689976345        3.2385701537       20.6608269706
 Na         5.5088703587        0.0516677996       11.3129805281
 Na        20.0536274250       13.6599105649        5.6013855169
 Na        11.7554235945       19.7127244267        1.3144343152
 Na        17.2526927435       14.1887708561       12.4608662216
 Na         1.8335764667       10.6232912508        1.5694221066
 Na         4.5992315856       10.9469393473        9.9158794596
 Na        12.1120760680        3.6991450922       14.5094346738
 Na        12.1211593072        4.1161852425        7.8652786624
 Na        13.7724724291        8.4337220653        4.3878571456
 Na         1.1275355026        6.1469219453       13.6545403412
 Na         2.4759932497       12.6439775945       14.7229907979
 Na         4.1153679931       17.9628150015        5.7068685308
 Na        18.0497471930        5.3173625195       18.5922979153
 Na        11.3865717705       15.6488850225        0.4057283163
 Na         1.4314253035       16.2412386993        7.0614617200
 Na         8.0287949170       20.4188219302        2.6658623581
 Na        15.3123445893        2.2376362184        3.5023452941
 Na        18.7757421401       11.9668230211       13.0529079443
 Na         8.5136870605       15.6756200350       17.2774374356
 Na        16.7723551039       18.2236980815       21.4511991793
 Na        12.7718591246       19.5967248306       14.6519211424
 Na         2.4518375830       17.2942385190       10.4793202880
 Na        14.6116298798       17.1116447922       14.1466759760
 Na        13.9162963550       14.5969491686       11.7809179758
 Na        18.0854931531        8.5212510248       11.9272022689
 Na         4.8925822567        9.8168836552        2.5813112824
 Na        15.0248426830        5.2415973594       12.0311973600
 Na        10.5656905385        9.7620477756        3.6873360565
 Na         6.9926982781        7.9690306202       15.5833827507
 Na         5.8039519229       18.6792567598        0.6192663774
 Na         7.5126964777       12.9626429276        0.6446338571
 Na        15.8228639884        8.0784590684        8.3402854404
 Na        11.0825834074       16.1596622659        4.0058371256
 Na        16.5052129521       19.1096042589        8.6751252244
 Na         4.9165191527       14.2398818317        2.6701161360
 Na        17.0337724823        2.3377787078        6.6620476098
 Na         9.5161159852       18.3117256546       15.5872160625
 Na         6.0869243918       17.5180836253        3.3257506337
 Na         4.1548065253        6.5528639050        2.2230614030
 Na        18.1066591478        5.3940631560        6.2428868109
 Na        18.1141962030       11.9245608887        6.4866996754
 Na        17.6267281470        8.5543754055        3.4993950435
 Na         2.2421388042        4.1754244694        8.9274225827
 Na        12.8285855390       13.6525913588       17.8636337862
 Na         9.7029974194        8.3439937231       17.7689303060
 Na         2.8951059077        4.3017880759        3.8603521750
 Na         1.3200415471        7.2546992119        6.2041529917
 Na        18.9956915755       13.9333926199        8.5515047673
 Na         1.7338843725       13.6675428787        2.1274989565
 Na         7.6176374521       10.5112788026        3.1722314054
 Na        19.6013526823       10.0490817650        4.4090691136
 Na         0.9458794862       15.0624276536       11.6840476356
 Na        11.8195275417       19.1902424705        8.6888825060
 Na        16.8676812616        8.5409036390       17.6101730508
 Na         1.2145733377        3.9509701366       11.8859195122
 Na        16.3341311116       14.5810148896        5.5472778059
 Na         9.1422880984        4.5735336805        4.7433152207
 Na        -0.6943569372       13.4586403831       19.2060780519
 Na         5.5386597278        3.2040524248       12.2421355052
 Na        10.0081914248        9.7523433837       10.0209474836
 Na        10.4783121161       19.9665718103        4.4026179414
 Na        20.6099064234       19.6554854293        7.5628999245
 Na        15.9485254959       15.6363387785        9.4221947519
 Na        15.8713306990        2.6029001776        9.4141419601
 Na         4.0963655661        5.3503061083        5.9573028972
 Na        16.5099361007       15.9532552542       17.9593799656
 Na        10.9069444014       11.8192785416       20.0459806008
 Na         5.3664676954        1.4112331565       16.1721743925
 Na        11.9604721622        6.5394560781        5.8534173563
 Na         8.7735064443        2.9950895145       12.8538241597
 Na        11.3899980158       21.5297156647       18.0294184691
 Na         6.7831326373       14.1055575371        8.0179237941
 Na        10.5251811298        5.3011569360       18.6977699897
 Na        12.2956003946        6.4440801550        2.3842872839
 Na         5.7374818544       17.2220825570        8.5544057684
 Na         4.4426364675       14.7670040037       14.8664181444
 Na         1.3425378709       11.1839179722       17.9123686166
 Na        12.5770808665       13.1607575435        3.3256469326
 Na        13.7251321917        1.5333293248        7.0500775409
 Na        10.2841902111        2.2375160359        6.9304477571
 Na        -1.0307668623       20.0719056169       10.9264177088
 Na        17.4000645379        3.2060190936       12.4455699969
 Na        18.0013325274        5.3784619055       15.1392782142
 Na        10.0238694143       11.1745040414       14.5870487335
 Na        -1.2803466434       15.9738748530       14.8767447185
 Na         2.8036661005        1.1304580316       14.2855269551
 Na        12.3252830211       12.6644070777        8.7228346907
 Na        19.1548074042        5.4383731557        2.9168359105
 Na        15.3784399684       13.1301603559       15.6598298248
 Na         0.1866361433       16.3633100783       20.3525765488
 Na        15.6526029004       11.2885934937        3.8802639595
 Na         3.6389436257        9.1806026780        5.3340507228
 Na         2.7507303992       11.6805972799        4.0377207764
 Na         1.8216786815        4.0499742672       17.0658786392
 Na        18.6510791521        9.0898420781        8.4182749253
 Na        16.1042114403       10.1639005309       14.7363787851
 Na         5.9121109070        4.1760309019       16.3559921324
 Na        13.5928771917        6.7913755872       18.7591633485
 Na         6.4475298899        9.7026460526       -0.3348560620
 Na         1.1012021021       12.0789658573        9.8578040219
 Na         8.8227908262        7.5689802590        1.3368861274
 Na         1.9056504586        9.5481549114       13.0196529454
 Na         5.4466947128        3.4112512400        8.3740074919
 Na        15.0795822065       19.4360020368       16.8358306673
 Na        13.5272759446       20.8935950794       10.6119934394
 Na         7.2030879750        8.2470006068       11.9067055273
 Na         4.2225613512       10.2992935348       16.8920538677
 Si         0.8810706107        3.3720142705        6.2393599030
 Si         8.0196344978        4.1094821630        1.1021875516
 Si         4.5793045674       12.1657103195        0.6326137020
 Si        17.7769317824       16.7650083139        6.8298015000
 Si        17.2425952637        2.5419724885       19.7248622224
 Si         1.5415669743        7.7778458316        3.3169981066
 Si        18.2331468134       12.3693251893        3.2706584461
 Si         3.5015781997        1.8383450181        5.7490940644
 Si         6.0209006653        4.0593028979        3.2678413428
 Si         9.5108989333        1.7999757108       15.8799816943
 Si        17.7979209676        2.4353118387       16.7370050534
 Si         9.7097051765       17.9602450613        2.3429641129
 Si        16.4675204732       18.8673610327        5.1530171660
 Si        14.2534775473       13.0635536501       20.4030522333
 Si        19.0962766750       17.2424371418        9.5278106665
 Si        10.5697735759        3.2243846296        2.0145634451
 Si         8.5606145839       18.2700132707       19.0111884431
 Si        12.1663916503        6.4214507919       16.0985517105
 Si        17.5529913743        5.3714997425        9.4588903244
 Si        11.3593940757        8.8867634187        0.8774711808
 Si        14.7192291282        5.1891230113        4.5464989499
 Si         3.0971256315       17.2288317276       13.5086729891
 Si        18.2949142165       12.7703738049       16.2316824030
 Si         2.6068784983       20.5948890667       19.6605666225
 Si        14.1564292914       17.4253373283       19.7922372791
 Si        14.6169329203       20.3232273846       19.7569377295
 Si        13.6704382499       16.3314149605       16.8235573663
 Si        18.0382425253       18.6717333418       17.0126221931
 Si         4.5598744765       20.7248519308        2.8903212915
 Si         0.8424156477        6.9223761419       10.3168807464
 Si         8.1275215169       15.7356774404        1.0792587352
 Si         3.5606352151       18.3407701911       17.9566691091
 Si        17.9886919440       10.4578254998       20.3500522275
 Si         7.6096981966        1.8904325930       18.4171651657
 Si        19.4389368448        7.3893697239       16.8663064156
 Si        16.8884853593       14.7113463738        1.8245419634
 Si         2.7017564593        8.8451439862        8.8243256025
 Si        16.0111538985       11.8573732817       18.1365323252
 Si        18.9605168297        2.7203512558        8.8967965278
 Si         0.1647309491       10.1768030770       15.2586590256
 Si        15.8360983439       19.8126988836       12.7885561513
 Si        15.1123672906        5.1237739387        7.4594762714
 Si         3.5759123434        4.0273474674       14.4996729279
 Si        15.3166126242        2.7607051961       14.7992353444
 Si        -0.2823650408       19.3072924469       20.0487031100
 Si         1.3892770472       14.5436148757       17.2602057745
 Si         1.5100649735        6.6698940075       19.4830478326
 Si         7.2119397732        6.2796453404       18.3370467343
 Si         4.2498362904        0.6214376365        8.5162727990
 Si        15.9190519826        5.0079326969        1.5520382159
 Si        12.2423500416        3.2517596825        4.5780375903
 Si         2.6677977983       15.8375171989        3.8688218571
 Si         0.5484266018        2.9202053534       14.4106271321
 Si         4.5993690681        7.3362750516       18.8738202946
 Si        17.3651916709       17.1623080347       12.0771476065
 Si         5.3879408984       17.6807834438       15.5081353795
 Si         1.5311182240       10.9901291357        7.1394561412
 Si        15.0620469044       16.3612274217        3.4489146756
 Si         7.4015048076       19.6167410320       13.9000901308
 Si         1.8683529539        3.9438680399        1.0007882527
 Si         1.1841325043       17.2629958307       16.2284089400
 Si        16.2352206026        7.9742883162        1.1169054682
 Se         4.4206458360        8.3141480360       13.8275089744
 Se         6.7954527711        5.4964381573        6.8709925703
 Se         5.6779204063        5.6175231139       10.3843691194
 Se         8.0967085375        5.9737861770       13.2013839371
 Se         8.0079581529        2.8284518462        9.9025006126
 Se        11.2686643298        1.5090830345       12.4362149323
 Se         3.0143259686       12.3730297751       12.0082944156
 Se         6.0290126992       12.6928475051        5.3457849593
 Se         7.1778055439        9.7940256144        8.8497135313
 Se         7.4481506525       10.8043952422       12.7121495648
 Se         9.6278114891        7.1407488583        4.0655948169
 Se        10.2302395602        7.1697772515        8.4811185327
 Se        11.0367682118        9.1153408775       12.8272601424
 Se         8.5779539594       10.9281009498       17.3010946222
 Se        12.2542103554        5.0086987286       10.9874848762
 Se        15.7134865940        7.8628376228       13.3915170190
 Se         6.6408492183       16.3033142073        5.9295909568
 Se         3.8263229749       14.8580657278        8.5917604858
 Se         6.9384993815       15.1006243590       10.8924641068
 Se         9.7391316381       13.1917978258        3.3047517591
 Se         9.5444687824       13.4500474536        8.1575845150
 Se        10.9435837255       12.5299160668       11.2308792209
 Se         8.8014402960       14.3511304616       14.6049880907
 Se        16.3267403240        9.1787662782        5.9062915729
 Se        12.5642428351       11.6982455341        5.7038214883
 Se        15.2996204208       12.0418910857       12.7001521560
 Se        12.5705504873       11.9048422665       15.4259150224
 Se        13.2528002422        9.7984684134        9.3129715706
 Se         8.7626457524       17.7092879659        9.9088198540
 Se        11.7583647500       16.6003232613       13.2597287903
 Se        11.1984239899       17.5758256081        6.3604219426
 Se        12.9132792577       15.7182268327        9.4347556921
 Se        15.7919719200       13.0095191627        8.1463301437
 Cd         5.4434505030        7.7777858274        8.8058458714
 Cd         8.0963717900        5.5667870396        9.1988479986
 Cd         3.7167494203        7.0044939091       11.5831910982
 Cd         3.4014628585        6.9601914491       15.9549667443
 Cd        10.5525447726        2.5839932542       10.1119994091
 Cd         8.0360786273        0.5223980183        8.4814479027
 Cd         3.7982374967       13.5172841149        6.3401238582
 Cd         6.8498805703       10.3522201996        6.2856574462
 Cd         4.9535207739       11.0526108995       13.5279418477
 Cd         7.0347962190       12.0774076095       15.6403818751
 Cd         6.6616302284        7.2277210985        4.7783034027
 Cd         9.2961124286        8.4617943679        6.4137141209
 Cd        10.7074170745        6.2741750980       12.6518571455
 Cd         9.0861678952        5.2315891992       15.6411672029
 Cd        12.7255781922        7.1402182214        9.5715014872
 Cd        13.1620235841        8.2168658843       13.8162051789
 Cd         7.7498429674       14.4961925262        4.2647629383
 Cd         4.4488977337       14.3257006523       11.1824056707
 Cd        10.2273222462       14.7660439126       12.2131434120
 Cd         6.7253731744       21.5140446281        6.0000591403
 Cd         9.8804044081       12.2165763328        5.7895675986
 Cd         7.9455583306       12.7162943834       11.1796228257
 Cd        11.3644339825       14.8440786417       15.2230922819
 Cd        14.0351925092        9.7529859235        1.3804210724
 Cd        14.6286156872       10.7895864351        7.0973344906
 Cd        12.6065283090       11.2222900351       12.8890687257
 Cd        12.9332592581        9.8914110487       17.1742323907
 Cd        15.0064382826        9.9376197993       11.1290061666
 Cd         8.6359505852       18.0301121520        5.6960668220
 Cd         9.8876080873       18.7662126112       11.9728538178
 Cd        13.7261749869       17.9275991500       10.9844642509
 Cd        10.3541414063       16.0352717140        8.4482445168
 Cd        17.1106587520       11.7554440622       10.0066107415
