438
 i =     6200, time =    12400.000, E =    -10932.3723064934
  O         4.0726635751       16.7011100591        3.3237265922
  O         3.5997563688        8.5485542787       10.2295659418
  O        14.0798557132        1.0770898612        1.7409349969
  O        12.1222915412       15.5407009780       16.9119471689
  O         1.6125744524        7.3892469180        1.5948261534
  O        15.9378626961       16.4170134077       11.7943023939
  O         4.0104444027       11.5128609794       18.7131557662
  O        17.3849452170       15.8222975666       20.1751762242
  O        15.6692503530       13.9952297798       20.6506644974
  O         1.6185941249       15.8374484171        2.5568646861
  O        11.1774087465        7.2582250954        0.8060550552
  O        18.1225213297       13.6715943955        2.2001716386
  O        10.8208337194        6.5427374004       16.8657728839
  O         1.2845014880       14.5588155618       18.7604969306
  O        17.8906958514        3.2703905255       18.3923813377
  O        12.0180703960        1.8500721266        8.6169412095
  O        13.4540742483        1.3185558921       18.4116233148
  O        17.1144814235        6.4225059011        1.3824655096
  O        10.7017715461        1.0071384294       16.4047833516
  O        15.4451227552       19.4294239185        6.2410002981
  O         4.8912725932        8.2131252243       20.1623887701
  O         3.0556795487       18.7909205320       12.6352608219
  O         1.2692871284        7.8337878878        9.0611106328
  O        16.4128320351       16.2286254287        7.3566171652
  O        17.0227366934        3.7830490408        1.4717296718
  O         7.4991012711        5.8148445603       16.7346479600
  O        15.8301162218        1.8825355744       19.4175070759
  O        -0.2851797599       18.5998912303        2.2840445292
  O        -0.1332394405        4.4277989375       13.6929682392
  O         2.1830620172       17.7726101896       17.4791079991
  O        11.8530208900        3.6801535906        3.2089441443
  O         0.4513129122        2.3950747560        7.6518179937
  O         4.5337150596        2.8259154943       14.3992466463
  O        16.8168878073        4.5979125833       10.8752767073
  O         5.5069518778        5.3479892621        4.0097293371
  O        11.5658035849        3.8845865823        5.7278124618
  O         4.1036380973       18.9450925420        9.5763168907
  O        14.6557382839       15.4376005780       16.0644215988
  O        17.1232197397       11.0879881603       19.2853880828
  O        14.7764467605        5.0564219197       20.2520947854
  O        18.5124104637        2.9915623981        5.3783910318
  O         3.3915078216        7.8783306701        7.5291485353
  O         4.6293124287       17.3872121043       18.6459286805
  O        13.3797646342        7.6544236528       16.7052801794
  O         2.0326681781        3.3380536646       14.9539618402
  O        15.9837909206        5.1029318490        3.4009834427
  O        14.5638378370       11.7736133127        2.0051461787
  O         9.4573157111       18.9469156292       20.4781152626
  O         5.8623605411       19.6669327509        2.6894067564
  O        17.1964013387       18.7238860715       12.7614223132
  O         5.0244291731       12.6940046421       15.1850789140
  O         0.5027425466       16.0381431204       16.4317746654
  O        11.3743204182       18.1938159734        2.9069781239
  O        17.9482944734       10.8996020735        2.4643599785
  O         9.7202941754       16.3812452106        1.8010077596
  O         0.2114925019        1.7655864411       13.6313046221
  O         7.3282319271        3.1506161429        4.3511679663
  O         0.7317402881       18.4871504033        9.7348953830
  O        18.2712429990       20.8292141177        1.0672747464
  O         3.3936126622        4.6154366208        1.1705854934
  O        17.6914652398       13.6225814380       14.7711982157
  O         0.3165015577       13.4606118209       16.6034381726
  O        14.9246795075       12.5300246608       18.7692667036
  O         0.8480921344        7.4680243944       11.6906100054
  O         7.9406683154        2.6644341033       19.9655360935
  O         0.3479702408       10.8217679147       19.8798323589
  O         3.6215002845        2.2167618330        9.3472381123
  O         9.8317633565        3.3399633632       15.3618618627
  O         0.7679470738        7.6741970146       18.3784452497
  O        12.9413837228       13.6177824447       20.1671521017
  O         6.0263212024       19.1753101825       14.5302820855
  O         3.4259437973       11.6641346155        1.9125659523
  O        14.2861700459       16.4064080984       18.4977908079
  O         2.1545477211        2.7676486969       19.1833864809
  O        19.5159546272        9.8829198846       13.6869462095
  O         7.1862114369       15.2283665197        2.2433182970
  O         0.1411964242        7.2844048621        3.8548516353
  O        17.6448072915       17.6850299552       10.3488699142
  O         8.8505941070        2.2621462798       17.6389257925
  O        13.8203005586        5.9669669072        7.6327334899
  O         2.4222453127       10.2075450762        8.5284844363
  O         2.2056657230        9.0045085389        3.7239118355
  O         8.3621556474       18.6503057250       13.5700711761
  O         3.2804358729        0.6609416801        7.1026942386
  O        12.5104547029        5.9103491899       14.7199894171
  O        12.2391522899        9.6788284781       19.2783881342
  O        15.4762400240        8.2559108496       19.3306382192
  O        10.0519259237        9.7366957191        1.4044095231
  O         6.8797618282        1.5117003554       12.7048567473
  O         8.5232248596       20.5428551481        6.6014809611
  O         2.9701300180       11.5274066642        6.3272315412
  O         3.2083989377        4.8500583979       13.1178351679
  O         5.8280187876        6.1049790167       18.7481865420
  O         1.9857707574       17.2136565492        4.8784812716
  O        17.9206348913       20.4030090604       17.0512529875
  O         2.7848944581       14.5711801112       16.3085124639
  O        -0.5138105228       18.7883617250       18.8510119857
  O         1.2435293051        4.5698907913        6.1024574808
  O         3.8665424042       20.1813889962        4.3688352626
  O        14.9759490565       17.4586496665        4.3708379611
  O         9.4998469638        4.2981742289        2.1655924344
  O        12.2620935634       17.6939758659       19.6895987707
  O        14.3940590127       16.8347658316        1.8703663711
  O        17.2063564820       12.9571908541       17.3160022007
  O        13.6226036958        6.2196348596        4.2682091990
  O        17.3524897803        9.5588374750       10.3953439383
  O         4.9777773490        8.3851784189       17.3879271250
  O         1.1516857583        5.2286831873       19.4137137205
  O         0.4650539672       12.1658211731        3.6495080628
  O        18.5603375347        6.4937761969        9.7614055732
  O        14.8560068101       18.6491299884       19.3895146776
  O         1.7787327848       10.6980418119       15.8335175440
  O        -0.2954235429        3.1189876994       15.9472891544
  O        14.2517369930       18.8674073700        9.2588637759
  O         5.9117647446       11.3707721102        1.1691387944
  O         8.6695686532       18.1403861454        3.4781367764
  O        14.9130203449        3.4896610111        7.7925417023
  O         3.2325748368        6.7502014875       18.7587956573
  O         0.7619171135        9.9052731211        6.4652152261
  O        12.6912821841        1.5758536947        4.8259010697
  O        18.5437820551       17.7707978636        7.8293784487
  O         9.1004918075       17.9331560497       17.9426039005
  O        16.4150922522       19.5301147652        3.7196314458
  O        18.2688775085        4.0905305341        8.5910808813
  O        18.7616871896       13.1694690139       11.0458833631
  O         3.9567703076        5.0208630080       15.7954073958
  O         4.4598407843       16.9470990129       14.2305276123
  O        15.6803030164       10.6485958394       17.0749084590
  O        16.4102077905       15.6179368151        3.1906388626
  O        16.1062353892        1.2536817655       14.4077254754
  O        15.8316905666        3.9981864337       13.9233459617
  O         5.7833515275        1.1356045579        8.0762464329
  O         1.8049750876       17.5113904416       14.5634128743
  O         7.5000258430       17.3234666715       20.0435471280
  O         8.0058865176        7.7558206173       18.6756723783
  O        13.4741342024       17.7989720129       16.2568368450
  O         1.7342683881        1.9651686857        5.3947218763
  O        16.4665065007        3.1396951806       16.1900943141
  O        14.1038901895        3.6978844465        4.5604845700
  O        -0.9917593337       16.4132947805       12.7283961450
  O        18.0472278287        8.7471999432       20.3358895126
  O         0.1276563834       15.7696312172        9.4701617643
  O         6.1464117831        2.5365412538       18.0356630649
  O         6.5292093678       16.8498699393       15.6016418386
  O        17.0353010515       17.8918647207       16.9341017619
  O         4.2724666143        2.9592744744        5.9772405938
  O        15.8442330333        1.5212202151       11.7700018572
  O         2.6461531849        6.3111743183        3.7545142518
  O        17.5912483833       20.9286504971        8.7507888645
  O         0.1846065650       18.5648486505       16.1136457078
  O        15.8237656084        8.7132366184        2.5337162518
  O         1.6208425539        5.4444224239       10.1494873541
  O         1.3887579112       19.7788179636       20.1988052717
  O         0.6736770405       12.3210737207        7.6763134638
  O         6.8800746009        4.4958961112        2.0371852160
  O         2.8813997647       16.0946763586       12.3774868499
  O         3.6124137569       20.6803413976        1.6218887565
  O        11.4326662229        3.0539890997        0.6977129130
  O         3.5381725252       19.8724180150       18.4753378370
  O        16.3073019766        5.7747647993        8.5229103360
  O         2.7930589123       14.6661640409        4.7225583313
  O        12.4029544681        8.9443211595        2.4188163271
  O        13.0709932107        5.0395881214       17.2365443685
  O         8.4812293041       14.8116021065       19.3652511182
  O         5.9244516887        9.1219136904        4.2279289253
  O         7.4310455175       19.7003953674       18.8417722143
  O         8.2220959702        5.2047200289       -0.0353944927
  O        14.5324034339       18.8648149989       13.0561013806
  O         1.0678342038        3.5876675600        2.2046332924
  O        18.7474688368       15.6755072493        6.1218533287
  O         8.0922238926        1.4365658396       15.1747468438
  O         8.9534497250       10.4466872208        5.3427648556
  O        17.2894336025       12.4518709966        4.5223911305
  O        18.3229245593        6.5342103200       16.9120945147
  O        19.2629706217        8.7726577525       16.1423349173
  O        13.9939228544        2.6550882008       15.3942996618
  O         4.3570343205       18.6767668469       16.2890199624
  O         0.2366756651        2.4187606401       10.3338852411
  O        13.6511282619       15.1526873769        3.8695007551
  O        17.4269429955       17.8150134453        5.4615513476
  O        15.7263333394        5.2486168764        5.9691687850
  O        10.1389119045        1.6975876789       22.1197169120
  O         5.0371188428        2.9343440161        2.9891468265
  O         1.5930292966        6.6831741813       16.0037648446
  O        18.5588911711       11.2156156552       15.7271617214
  O         4.6319296073       13.8592950522        0.6335891336
 Na        13.4583050799       14.2897238101        6.4683900899
 Na        -0.0625700783       18.9026281243       13.7972671536
 Na        14.4699988666        3.3623651118       17.6351440340
 Na        14.1957811912       17.6438167491        7.4468091990
 Na         4.3805882388       13.6411309014       17.6004533906
 Na        13.4523715256       19.2982889490        3.6342822236
 Na         5.2244774083        3.8844416252       19.7458662761
 Na         2.0540131463       18.6651793418        3.0687684091
 Na         6.9047060600       16.3766009345       17.7896608043
 Na        18.9676111561       21.0725004407        3.5164246867
 Na        19.1509111966       16.8624708878        3.8907370879
 Na         3.5258887809       15.8010226417       19.9938723765
 Na        14.6831719171        5.1801421645       15.4012698626
 Na         2.0018488126       20.1667824013       10.5358400068
 Na        11.8754911614       18.8034717938       17.5847991238
 Na         7.5557401196       16.7187674172       13.1830006389
 Na        13.5880404100        3.2891782985       20.7868568789
 Na         4.9964712316        0.5614669631       11.5423590565
 Na        20.1475394028       13.6864678163        5.5058334570
 Na        11.6938240189       19.7168411587        1.0565577762
 Na        17.3495516192       14.3291016657       12.4756589406
 Na         2.1452915324        9.8576820991        1.4478220183
 Na         4.3741914389       10.7641918790        9.8107670012
 Na        11.9466883688        3.2848658038       14.5724346484
 Na        12.7260947591        3.8914448540        7.9404376731
 Na        13.8231923984        8.4167444175        4.3273794134
 Na         1.4015460750        6.4505093489       13.8270416499
 Na         2.5135420777       12.7246977702       14.9979489307
 Na         4.2627683321       18.0525182312        5.4241512166
 Na        18.3939277346        5.5955222159       19.0452214710
 Na        12.0921223739       15.5290646541        1.8843729122
 Na         1.6190509481       16.2616002869        6.9490997836
 Na         7.9482138592       20.6331465315        2.6108396439
 Na        15.3459790837        2.1001807424        3.6074975118
 Na        18.7982090258       11.7835576565       12.9785622693
 Na        10.4849802696       16.0378762467       18.6485668587
 Na        16.5355978049       17.9831134334       21.3630918800
 Na        12.7819346020       19.3060319877       14.6872354895
 Na         2.6856776844       17.3600324450       10.3333230375
 Na        14.4258285638       16.9039719784       14.2470983791
 Na        13.8098903606       14.2862532115       11.6622389542
 Na        18.3965208218        8.4464164903       12.1660280944
 Na         4.8073216281        9.6717211528        2.3414436732
 Na        15.2748991233        5.2063733255       12.1105088902
 Na        10.8921982315       10.0988966028        3.6907003773
 Na         6.9394245104        8.1568054512       15.9706466524
 Na         5.4300653261       18.9533649584        0.5947323252
 Na         6.9963235561       13.3122725947        0.8792875607
 Na        16.0879467130        8.1130708401        8.8293122810
 Na        11.2875958749       16.0830999611        4.5707045625
 Na        16.5407662172       18.9670283800        8.7029785310
 Na         4.8992687495       14.3732820729        2.8291897593
 Na        16.8228874367        2.0584337824        6.6177880259
 Na         8.6973550226       18.1167417330       15.6881088978
 Na         6.3172088651       17.4313872983        3.0422530503
 Na         4.3538580538        6.3530236366        2.1733773056
 Na        18.0707435807        5.1334821316        6.5331148597
 Na        18.1669721538       11.4773590585        6.5267669515
 Na        17.1010838558        7.2443999254        3.6668216495
 Na         2.1619653966        3.8571362692        8.6850156385
 Na        13.2321078955       13.7858753271       17.9474158497
 Na        10.0868397869        8.1565516871       18.0356531969
 Na         3.1207582676        4.2669916268        3.5570885805
 Na         1.2194880794        7.6418945735        6.3858574760
 Na        18.5066845972       14.1518485772        8.2831876985
 Na         1.8814273745       13.4519694997        2.1239125235
 Na         7.5751909543       10.5223400837        3.0242684452
 Na        19.4695049497        9.5941258356        4.3370952481
 Na         0.6597521773       15.0278775379       11.5931453052
 Na        11.6435052947       18.9119783978        9.1314538477
 Na        17.1093148533        8.5091424501       17.4807955481
 Na         1.3974750065        3.8095338800       11.9055412259
 Na        16.6266809975       14.5750940079        5.3034612211
 Na         9.2797947025        4.2221851928        4.9891886404
 Na        -0.1574040901       12.9007328334       19.3666080824
 Na         5.9952173266        3.6402836360       12.5921756487
 Na        10.7148638493        9.5851277332       10.5778565463
 Na        10.8341168672       19.8703580515        4.4518139879
 Na        20.1971983572       19.5556418934        7.6910457253
 Na        15.8827221083       15.8109117613        9.4095142223
 Na        15.8294721798        2.7034011659        9.7610307410
 Na         3.6744686769        5.8283323615        5.9906168857
 Na        16.5611712162       15.8899868860       18.1748438925
 Na        10.9377241413       11.7633441494       19.4374321163
 Na         5.4576186453        1.6289914084       16.1069794780
 Na        12.1483783297        6.1778600600        6.0489356402
 Na         9.0723532895        3.0503311519       13.0069529830
 Na        11.7301977092       22.0594605902       17.9165663608
 Na         7.0030731607       14.4024198330        7.7377127394
 Na        10.6136890030        5.3738135045       18.9807632446
 Na        11.8517775271        6.1313002592        2.8787330711
 Na         5.6065356767       17.1697234549        9.0188390143
 Na         4.7340000742       14.8859802847       14.7279924294
 Na         1.7585100501       11.2553367178       18.0049837402
 Na        13.0592055640       12.9029682454        3.4339968147
 Na        13.7887266236        1.3285861765        7.2681190763
 Na        10.6827237463        2.1516912394        6.9545249156
 Na        -1.2103844679       20.0627894700       10.9684949432
 Na        17.5579781412        3.3764692252       12.6519232436
 Na        17.6436989892        5.4184937279       15.0578526299
 Na         9.7973426767       10.5617501290       14.8106244403
 Na        -1.4311901229       15.9284479587       14.9398714320
 Na         2.7720104014        1.1253050586       14.3100362618
 Na        12.5732578229       12.3344934668        8.7548230415
 Na        19.8727097348        5.0853481292        3.8395486694
 Na        15.2262890635       13.4384052525       15.4058399840
 Na         0.2170483509       16.1864161253       20.0084076261
 Na        15.6169569764       10.8864549572        3.7422836714
 Na         3.5860317858        9.2733194068        5.4619676277
 Na         2.7421520926       11.5352235809        3.9863697108
 Na         1.9378490576        4.4083395921       17.2578350095
 Na        18.7547246182        9.1033947123        8.4411646599
 Na        16.4097257311       10.5085690080       14.9358996608
 Na         5.9492306283        4.2314354929       16.5744250874
 Na        14.0252533597        6.6096159398       18.8992103660
 Na         6.2098098769        9.8964526404       -0.4043439687
 Na         1.3377152448       12.7192033755        9.6987540099
 Na         8.7704737654        7.8074058213        1.4583980082
 Na         1.9817750669        9.4944830365       12.2399013910
 Na         5.2236000083        3.7590378711        8.7459407680
 Na        15.2127936174       19.2213679938       16.8517130227
 Na        13.7505608707       20.6934377267       10.7903404707
 Na         6.9984010500        8.1873294394       11.7856489724
 Na         4.2245242126       10.4233042725       16.5475094773
 Si         0.5896758617        3.0417393140        6.0585186581
 Si         8.2183956940        4.1203410663        1.2144723832
 Si         4.5300644038       12.1447507335        0.7622066599
 Si        17.7620919723       16.8044201749        6.6923434604
 Si        17.2711217620        2.5585340341       19.7795159534
 Si         1.6783229906        7.5045944979        3.2910691204
 Si        18.3034933118       12.3131786424        3.2493610577
 Si         3.2997891920        1.6458481822        5.7261738568
 Si         6.2543787049        4.0213846511        3.5081966176
 Si         9.4657466176        1.9683929087       16.0563965035
 Si        17.8627809498        2.6594990193       16.8547174068
 Si         9.8879816495       17.9820959971        2.4448672458
 Si        16.1133944481       18.7122876546        4.9938812222
 Si        14.4225552358       12.9072948572       20.2872950593
 Si        19.0357531629       17.3039182293        9.4160498840
 Si        10.7358892203        3.0194309841        2.1318722513
 Si         8.4538413088       18.4482821736       19.2822158336
 Si        12.3753192858        6.3110379830       16.3888332131
 Si        17.4945972128        5.2723297499        9.5901945328
 Si        11.3408042511        8.8709635889        1.1058445487
 Si        14.8010484197        5.1802161055        4.5510580178
 Si         3.0546926881       17.3216105802       13.4188386223
 Si        18.2717502897       12.8558226287       16.0271619179
 Si         2.6487491104       20.6506066703       19.6881448721
 Si        13.8161416756       17.3531972556       19.7677406595
 Si        14.4491860581       20.2440482463       19.5657647061
 Si        13.6152021545       16.2838957931       16.9062482028
 Si        18.2613189072       18.7915639638       17.3039391726
 Si         4.7189546350       20.7212244565        2.9070160069
 Si         0.7534930344        6.6973437315       10.2990775691
 Si         8.2413120855       15.8378077740        1.1841097514
 Si         3.6970456981       18.3295648911       17.7528217792
 Si        18.2587468842       10.3638096243       20.3573562434
 Si         7.5453433992        1.9074828342       18.5275551213
 Si        19.7060504252        7.2911068300       16.7513752810
 Si        16.9523822039       14.7486283569        1.8402443026
 Si         2.6580086078        8.5653810664        8.8185041083
 Si        16.2119098321       11.7509068238       18.0502575352
 Si        18.8423965218        2.5641205559        8.9344686834
 Si         0.4022815383       10.0921408429       15.2879769269
 Si        15.8271825442       19.8530423749       13.0137123228
 Si        15.1417506009        5.0662925597        7.5269038568
 Si         3.5665504797        4.0898836858       14.5306478565
 Si        15.4648332573        2.7383389851       14.8172669332
 Si        -0.1594944240       19.4375027467       20.3183424873
 Si         1.3596665033       14.7744133733       17.0976473072
 Si         1.7281837644        6.8039443693       19.3762721363
 Si         7.3876269847        6.3102765821       18.3218372171
 Si         4.2271437803        0.9241098949        8.6069277588
 Si        16.1113467180        5.0858456327        1.7751241390
 Si        12.4867919046        3.1237503907        4.6410013568
 Si         2.6088066290       16.0938465247        3.8436448824
 Si         0.4655984101        3.1539309818       14.4654638457
 Si         4.8112050636        7.4772499434       18.7321989524
 Si        17.2841570230       17.2595413575       11.9609602340
 Si         5.4018113940       17.8867072186       15.2377703574
 Si         1.6724605579       11.0167670545        7.1893749369
 Si        14.7956868310       16.2189248356        3.3677560448
 Si         7.4024033091       19.9216700448       13.8772367058
 Si         1.9021509041        4.0657336520        0.9535078706
 Si         1.2929400356       17.4763231856       16.1702772004
 Si        16.4739849171        8.0592118463        1.1626796324
 Se         4.6180375296        8.5284675769       13.6620905037
 Se         6.7554063341        5.7386233539        7.0730720314
 Se         5.9229465629        5.8593590271       10.4792812738
 Se         8.5447794427        5.8786039264       13.0239810007
 Se         8.3736913284        2.9189205728        9.9559709230
 Se        11.3626834970        1.4729991841       12.5236817400
 Se         3.1224759231       12.3654276341       12.1521267153
 Se         6.0090259055       12.8357697878        4.9854010094
 Se         7.0702787286        9.8792513207        8.5069556556
 Se         7.6489099563       10.9133322490       12.5400057067
 Se         9.4262447199        7.0183191579        4.2923004410
 Se        10.3102954696        7.3851193068        8.6283049326
 Se        11.4184863036        8.8807278209       13.2441776096
 Se         8.2456438309       10.7730062790       17.2292797402
 Se        12.6209270199        4.8324695384       11.0676233015
 Se        15.9996474492        7.7499067482       13.6024190714
 Se         6.6010653768       16.7329285328        6.1418456170
 Se         3.7338510682       15.1483691961        8.5252704995
 Se         7.0031576994       14.6875823689       10.7380922180
 Se        10.2047958550       13.5514526022        3.8658716489
 Se         9.6987785518       13.2289084972        8.3928507149
 Se        10.9402598203       12.3158319344       11.4895806233
 Se         8.6444384261       14.5270981502       15.0204804405
 Se        16.8042411730        8.7665667793        6.2144555514
 Se        12.9218314764       11.2069950311        5.8175701362
 Se        15.1804190299       12.1089227360       12.7508426644
 Se        12.1841792850       12.1045991820       16.0201082812
 Se        13.5625836102        9.4755493484        9.6146265424
 Se         8.9021783451       17.8467418293       10.0876192470
 Se        11.8919436691       16.2753032017       12.7312188894
 Se        11.1637209437       17.6952218072        6.6483185502
 Se        13.0967614968       15.5827747568        8.9745371542
 Se        15.8446775746       12.7634758664        8.3626007666
 Cd         5.4705626296        7.7943732475        8.5399537684
 Cd         8.5460570835        5.5085344791        9.0691393405
 Cd         3.7386530870        6.6355583389       11.5644911775
 Cd         3.7618801417        7.1976575496       15.9127626726
 Cd        10.9524985581        2.7069981315       10.1973716013
 Cd         8.0272522700        0.5670722385        8.7053709054
 Cd         3.9587771854       13.7491846888        6.3208060674
 Cd         6.6745246445       10.4596277897        5.8820078556
 Cd         5.1713606245       11.3242822115       13.4094987261
 Cd         7.0840915114       12.6124384491       15.9614458250
 Cd         6.7273131941        7.0886543740        4.5310939878
 Cd         9.4134758400        8.5088464911        6.3936362450
 Cd        11.1793079086        6.3071956622       12.7932112445
 Cd         9.3420792899        5.4557471843       15.4817588061
 Cd        12.8586460725        6.9900371491        9.4397789842
 Cd        13.5426712476        7.9161941885       14.3017475518
 Cd         7.8821618549       14.7775501960        4.4453918794
 Cd         4.3323561654       14.5831161266       11.2648203390
 Cd         8.7427953600       13.5599799430       12.4370839964
 Cd         6.5688326078       21.5351348856        6.1512961181
 Cd        10.0126839276       12.0153514281        6.0511777734
 Cd         7.7246038482       12.1702486056       10.0558208746
 Cd        11.2308820571       14.9888355315       15.0200804384
 Cd        14.1132119023        9.6992185902        1.2253728504
 Cd        15.0779430264       10.4630789847        7.1197139673
 Cd        12.5266453296       11.5774384654       13.4023735504
 Cd        13.3363957730        9.8760846188       17.0721116336
 Cd        15.4940860292        9.6726904095       11.5571740896
 Cd         8.6903719715       18.2841985532        5.9337820031
 Cd        10.2435282452       18.5749310750       12.2062231758
 Cd        13.8857547707       17.6620256782       11.0441323707
 Cd        10.4220159355       15.8223399644        8.5589596978
 Cd        17.4580249298       11.8378170573       10.1116347310
