438
 i =     5400, time =    10800.000, E =    -10932.3837440348
  O         3.9696022011       16.8242243799        3.0185566295
  O         3.4215473576        8.9955936463       10.4194774104
  O        13.8645408290        1.1158256699        1.8233387340
  O        12.0649722704       15.9505501660       16.8046082361
  O         1.7570085590        7.2695721683        1.5001330681
  O        15.8137159511       16.3585221037       11.9611389676
  O         3.9251626765       11.5639173045       18.6684611054
  O        17.5786511454       15.5435942614       19.7182905918
  O        15.5005920956       14.0718728324       20.6226920268
  O         1.6541309722       15.8341264925        2.4409052233
  O        11.3515637862        7.4723314966        0.4559971887
  O        18.0964431328       13.8269320496        2.1948153935
  O        10.7950082829        6.8594643151       16.6056566777
  O         1.4557333607       15.2018167225       18.4861798116
  O        17.7955104085        3.2260058620       18.3430013868
  O        12.1028958019        2.1065911095        8.4139944177
  O        13.8578847240        1.8250941370       18.5255881794
  O        17.2300621822        6.5165084201        1.5201213524
  O        10.5789191695        0.9739783899       15.7854326765
  O        15.5475121772       19.5541039927        6.0269746761
  O         4.5519923027        8.1804602062       20.0250274775
  O         3.2359208218       19.0592662724       12.1640260145
  O         1.3700261741        7.8577317704        8.9501964372
  O        16.2078967823       16.4647712328        6.9792420716
  O        17.4073837019        3.8474133090        1.4405241361
  O         7.4368998038        6.2967030129       16.6299791459
  O        16.0607227231        1.8958001859       19.8662286615
  O        -0.2308793858       18.6245089642        1.9349750346
  O        -0.2472976242        4.6799539028       13.7160330638
  O         2.2979587629       18.0824282083       16.9822973784
  O        11.9715395305        4.0127806477        2.9729190250
  O         0.5754985083        2.4937110020        7.3614772391
  O         4.5818558568        3.2077823201       14.1991084458
  O        16.8426577465        4.6986985906       10.6051489563
  O         5.3739493417        5.2564310448        3.8604870402
  O        11.4175957025        4.4687463083        5.5078151154
  O         4.3077553028       18.7818751995        8.8687803583
  O        14.5426886150       15.5548653409       15.8199750962
  O        17.4018472591       11.2510864206       19.0129082969
  O        15.0583231549        5.0476991792       20.0262064553
  O        19.1229454193        3.8364882657        5.2141511253
  O         3.5570917691        8.3957986976        7.7671084978
  O         4.5873301522       17.4482075999       18.3280454977
  O        13.4119865623        7.7844388453       16.4662047467
  O         2.0362228714        3.4480345118       14.8191464134
  O        15.8686078774        4.8886007566        3.1527175348
  O        14.4672798648       11.7480039125        1.9616266588
  O         9.6769570360       18.9472169095       20.2966107474
  O         6.1898237573       19.8309552703        2.4837597083
  O        17.1342747681       18.8169800490       12.6212897012
  O         4.9467056304       12.5960045739       14.9646878106
  O         0.5735659252       16.2509227534       16.0046772461
  O        11.4278667468       18.0207738485        2.7757068446
  O        17.7592801284       11.1002238660        2.3561541602
  O         9.5348451203       16.4361549697        1.7209222533
  O         0.3140755407        2.0633260208       13.4857036371
  O         7.4635987792        3.3113916751        3.8673980413
  O         0.6929493430       18.5702705365        9.8545335036
  O        18.6247224456       20.9033384956        0.7991685475
  O         3.4509849497        4.6305990137        1.2166396988
  O        17.6592342187       13.7879924843       14.6640620644
  O         0.0742912208       13.7036605242       16.7343513485
  O        14.9794301569       12.3150051431       18.7111971047
  O         0.9052991205        7.6588878755       11.5882394227
  O         8.0101899844        2.8632444031       19.8388666441
  O         0.4280899296       11.1447499391       19.9827118279
  O         4.0306802954        2.1892256940        9.1329734414
  O         9.9711502882        3.5840289738       15.0536294862
  O         0.8824850890        7.7298539213       18.4090035791
  O        12.9482621630       13.6570619468       20.0577435165
  O         5.8525524474       19.6263370971       14.1649713479
  O         3.3119458742       11.5904120690        1.8985318881
  O        14.2940115169       16.5579362603       18.2419709120
  O         2.5184043722        2.8087537260       19.1332025103
  O        19.4790204449        9.9752033456       13.8404778558
  O         7.0521624887       15.5369915873        2.1023947291
  O         0.1980133778        7.2904805916        3.9507157737
  O        17.6127461329       17.4548951545       10.2881849818
  O         8.9627575795        2.5739246753       17.3279333737
  O        14.0456863250        6.1982651758        7.4762640647
  O         2.1190310470       10.4239370745        8.6342652253
  O         2.3503642966        8.8646176783        3.6248216925
  O         8.2509996479       18.8854101458       13.2815863151
  O         3.5196375392        0.8186987841        6.8367379727
  O        12.4207672639        6.0195628705       14.6124225049
  O        12.6094439880        9.8061203155       19.1805399294
  O        15.5990272942        8.2488100851       19.5813136359
  O        10.3349886663        9.8892935695        1.2229944050
  O         7.0615527718        1.8504649622       12.4593833625
  O         8.7970427656       20.6477851218        6.3696406333
  O         3.0194827547       11.5329213202        6.3303362229
  O         2.9446654381        5.0912488917       13.0321407555
  O         5.7938702945        6.2468890349       18.6459231867
  O         2.0059905292       17.3625920921        4.8538818874
  O        17.6403657849       20.3867970250       16.8868867937
  O         2.5165444517       14.4139269094       16.1645624625
  O        -0.5775814246       18.8080781982       18.5601794330
  O         1.7765660838        4.8076370047        6.7211049440
  O         4.0724389263       20.3136166582        4.1454434140
  O        15.3600466274       18.0342678340        3.8186504604
  O         9.5607194189        4.4934427131        1.8506775174
  O        12.5445255671       17.9629599104       19.4235827728
  O        14.6343396386       17.0716040861        1.5384874168
  O        16.8663384869       12.9775700590       17.1454776164
  O        13.8908415857        6.4586303049        4.1650235380
  O        17.3151104435        9.7244608597       10.3602348886
  O         4.6677937961        8.3633166627       17.2392749376
  O         1.1537276234        5.0912146546       19.3180774772
  O         0.2910645994       12.3492702321        3.8155111474
  O        18.6092857028        6.5943348326        9.7094454606
  O        15.0974452490       18.9234217775       19.2660303008
  O         1.8325462147       10.4518613881       15.9607124503
  O        -0.2757619054        3.2468295567       15.9628010342
  O        14.1559878595       19.0863655760        9.3810905762
  O         5.8769933908       11.3883300655        1.1597005643
  O         8.8308113217       18.5588019828        3.3730087297
  O        15.0424437202        3.6108148110        7.6308770682
  O         3.1477118803        6.6467449242       18.4393473548
  O         0.7758036187       10.0140981085        6.3807527599
  O        12.2083381225        1.9799567954        5.0595834557
  O        18.5212428929       17.6473591168        7.8220384537
  O         9.3306108271       18.0187979713       17.7725855255
  O        17.0695618841       20.1029406054        3.8769304483
  O        18.4935546378        4.1990689680        8.4215236889
  O        18.7539960806       13.2156291417       11.0493233824
  O         3.8484910102        5.3215538979       15.6446097883
  O         4.5269926916       17.3252671068       14.0357434032
  O        15.6711271251       10.5532368673       17.0030702476
  O        16.5711594710       15.9471851984        2.8526910826
  O        16.3523587378        1.4294726438       14.1493963267
  O        15.5831338253        4.1060688334       13.8413696378
  O         6.0806225678        1.0639357097        7.6344043993
  O         1.8900023271       17.8844450051       14.1797430270
  O         7.4713582897       17.6440125431       19.8452358834
  O         7.9485461280        8.0404170141       18.6472391890
  O        13.6037241279       18.0442526340       15.9100310694
  O         2.1075586828        2.4856552141        5.2279023825
  O        16.4735275060        3.3082618812       16.1752963571
  O        14.0054583210        3.8330364583        4.5896699345
  O        -1.0429659404       16.4749135128       12.8111070692
  O        18.0305474560        9.0139215494       20.2880626245
  O         0.4573846150       15.9251816822        9.3595800124
  O         6.2921894946        2.7508590592       17.6772902335
  O         6.7626181379       17.4200772220       15.5630477963
  O        17.1534074055       17.7871879660       16.6574953638
  O         4.7124082745        3.0413350576        5.9278488166
  O        16.0342480460        1.5934052537       11.5190811297
  O         2.7048116974        6.2247561786        3.9148450942
  O        17.8012524705       20.9071154436        8.5107167432
  O         0.1465828858       18.8689885403       15.8375982079
  O        15.9977245634        8.7357165233        2.8227948396
  O         1.7235909454        5.5544046814       10.2161586574
  O         1.5820286814       19.6679525612       19.8139201432
  O         0.6607921595       12.4127106616        7.6011793362
  O         6.9093265767        4.8699443322        1.7362385629
  O         3.0707620636       16.3804023411       12.0441694892
  O         3.6820075163       20.4458622283        1.6404671351
  O        11.5552298577        3.5285004085        0.4040247887
  O         3.7545170227       20.0005128032       18.4188490071
  O        16.6178649703        5.8063082724        8.2172588236
  O         2.8010678681       14.7635405066        4.5543431371
  O        12.6269550716        8.9465031084        2.3330743082
  O        12.8830938685        5.3289599382       17.2361401807
  O         8.3318833010       15.2021353490       19.0811739794
  O         6.0190272700        9.2108157258        4.5731494890
  O         7.7961582300       19.9982724226       18.6952662995
  O         8.3016471356        5.3009753781       -0.4524087316
  O        14.5914074590       19.1629391274       12.9066355487
  O         1.2058793386        3.3815333496        2.0466969688
  O        18.6673064152       15.6178189572        5.9098489604
  O         8.1575581794        1.6635372725       14.9055628891
  O         9.1640939440       10.5046111998        5.2500452298
  O        17.1095151254       12.6660671177        4.3764163751
  O        18.1704714433        6.6709627890       17.0663648862
  O        19.0093342138        9.1204577868       16.4212747290
  O        14.0774399229        2.3019051445       15.2631887456
  O         4.5632299730       18.9719379854       16.1415501950
  O         0.5580716956        2.5477364275       10.0012278119
  O        14.1359361055       15.5109658964        3.8898085255
  O        17.6239150303       17.9256357153        5.2605972742
  O        15.9671807283        5.3338977502        5.7067564458
  O        10.5159598890        1.9690281848       21.7208514949
  O         5.1123488624        2.9996775941        2.6705700291
  O         1.1628820881        6.8884090897       15.8854232158
  O        18.6060998023       11.4955619366       15.7885944133
  O         4.6617260823       13.6764627374        0.7136456927
 Na        14.2661461203       14.4353055174        6.6699232105
 Na        -0.0737754585       19.0837278655       13.5632858126
 Na        14.9333635631        3.9705969599       17.7188808924
 Na        14.2991575898       17.7138132237        6.8647173333
 Na         3.9046748713       13.8147066210       17.9304264509
 Na        13.1376599275       19.3191180258        3.7205801092
 Na         5.2774226525        3.9406039990       19.3265844009
 Na         2.3124781919       18.9691075679        3.0510756992
 Na         6.5235819112       16.6097688889       17.7069817878
 Na        19.1019814725       21.0880171894        3.4093350632
 Na        19.1972031311       16.8519905928        3.8447007867
 Na         3.4023318353       16.0385808687       20.0497245799
 Na        14.6596937461        5.5824221864       15.2595488238
 Na         2.2150608252       20.5480441112       10.4311415170
 Na        11.6886723910       18.6928171405       17.2863784309
 Na         7.5887569855       16.6087872769       13.2299041168
 Na        13.5214285346        3.5772240373       20.6096370179
 Na         5.5874039040        0.3428296827       11.2087112577
 Na        20.2477981608       13.7044693844        5.4095329609
 Na        11.6900339415       19.8424040969        0.9773233611
 Na        17.2065806327       14.3297454082       12.1950986288
 Na         2.0571349401        9.6236307915        1.2822221760
 Na         4.5761184058       11.0010380752        9.4687824706
 Na        12.3779792457        3.5574677591       14.2794422126
 Na        12.6800278146        4.1614791535        7.7312761771
 Na        14.1867320775        8.7111938254        4.3541243110
 Na         1.1418965564        6.4459137579       13.4920482142
 Na         2.4723361058       12.4555417132       15.1291805717
 Na         3.9580927700       17.9067742707        5.6399174103
 Na        18.2306025920        5.6708865274       18.9067323600
 Na        11.6651546589       16.0034740542        1.0203966269
 Na         1.4829292264       16.2716512769        6.9342275267
 Na         8.1459789849       20.9286840061        2.3363332274
 Na        15.5225344076        2.3252877739        3.4849109200
 Na        19.1035478064       12.2301766271       12.9802265241
 Na         9.8754501806       15.8241803262       17.6737593873
 Na        16.7601029087       18.6402477527       21.1797243017
 Na        12.7323887565       19.6682925993       14.6219698086
 Na         2.7330536894       17.6282322495       10.0929158244
 Na        14.6712227101       17.2308697032       14.0156333953
 Na        13.5033050588       14.5148707020       11.3110273638
 Na        18.4039230908        8.5215445961       12.2922610444
 Na         4.7757510107        9.7024375831        2.6682470127
 Na        14.9515735252        5.2716486160       11.8635974970
 Na        10.7496235424       10.1494710105        3.4992831211
 Na         7.0625220827        8.3524040173       15.7690424094
 Na         5.6666249794       18.9189104670        0.5603004241
 Na         6.9030115389       13.3934820098        0.8387040869
 Na        16.3061561013        7.9681274405        8.9406739960
 Na        11.4219697027       16.1635656771        4.2387325170
 Na        16.1884571155       19.1210996701        8.7752843498
 Na         4.9189753856       14.7407775206        2.9126322009
 Na        16.9703265696        2.2705995700        6.3831699625
 Na         8.8179744488       18.5590206456       15.7295619211
 Na         6.4649708591       17.4927843011        3.1113775468
 Na         4.3286471901        6.4873732252        2.1505684122
 Na        18.4607058972        5.5658056631        6.4699739793
 Na        18.1148898526       11.7443276780        6.2591474495
 Na        17.3147449859        7.2062419843        4.1056149354
 Na         2.3757346844        4.0198267379        8.7391526287
 Na        13.3895096576       14.0248384445       17.6729553046
 Na         9.9607436174        8.5572760038       18.0129097563
 Na         3.2891108668        4.0359990694        3.5085392756
 Na         1.9627995838        7.1281909730        6.4907382532
 Na        18.8296108301       14.0481802771        8.5004896946
 Na         1.6900973800       13.5149570486        2.3071763381
 Na         7.4184907047       10.9511206815        2.7336783386
 Na        19.2255332596        9.5721339567        4.4323856693
 Na         0.9094352152       15.3507435920       11.5911484951
 Na        12.0345994031       19.1687920528        8.7998962182
 Na        16.6688430449        8.6036368371       17.5215545718
 Na         1.3204007615        3.9912241285       11.6658537069
 Na        16.5328563470       14.7463180210        5.1746019456
 Na         9.5289940669        4.7129204448        4.2240125043
 Na        -0.4981905269       13.5030124328       19.1242585143
 Na         5.6099988036        3.8926931681       12.2269241347
 Na        10.6126991906        9.9687289773       10.5449104718
 Na        10.2154244750       20.3879720892        4.2576222009
 Na        19.9401833248       19.5998136135        7.2300620988
 Na        15.9455808200       15.8957849845        9.4361267377
 Na        15.9679294266        2.7424332664        9.7095232653
 Na         3.9725574066        5.2269237190        5.6529823787
 Na        16.5059224306       15.9567320900       17.8060581087
 Na        11.1729883643       11.9824752390       19.6894307737
 Na         5.5042235607        1.7671988749       15.7615235590
 Na        12.2700502197        6.5163807814        5.9979714391
 Na         8.9605241301        3.2613797193       12.8556069668
 Na        11.9833184564       22.1175274138       17.6011194048
 Na         6.5514700805       14.3041010374        7.7235639337
 Na        10.6964431578        5.5731974375       18.6932137170
 Na        12.2509208038        6.6189656528        2.5752367844
 Na         5.9940734762       17.2821338002        8.6497471805
 Na         4.0174280427       14.7990653128       14.4384047849
 Na         1.8056743075       11.0953073502       18.1838634731
 Na        13.2923356262       13.4289241863        3.6320407225
 Na        13.8428432022        1.5461639042        7.0410708418
 Na        10.6290188599        2.3812460817        6.8187455429
 Na        -1.1350113490       19.9922530370       10.7196194919
 Na        17.4914238563        3.4669477231       12.5556604662
 Na        17.9518452379        5.7551780323       15.0601351227
 Na         9.9613203642       11.6335816196       15.0597474465
 Na        -1.6476317037       16.0616931584       14.9103303375
 Na         3.1554953189        1.2918792155       13.8430141797
 Na        11.9912137997       12.8551081176        8.6400174663
 Na        19.6158426200        5.0738138520        3.3601459727
 Na        15.2061007573       13.6361526711       14.6652823381
 Na         0.1797858258       16.6214036472       19.7702760940
 Na        15.9217083818       10.8960618054        3.7542573576
 Na         3.9572622927        9.4093759269        5.4905314517
 Na         2.2776831476       11.2269169613        3.9803304497
 Na         2.0892515336        4.4527853458       17.0253425136
 Na        18.8820297874        9.5850543487        8.2646526308
 Na        16.6614642883       10.4734962398       14.6493752145
 Na         5.9636164450        4.7188032502       16.1577924459
 Na        13.7548792373        6.8880122262       18.8433181075
 Na         6.3048156966        9.8470886531       -0.4161753849
 Na         1.2818434819       12.5573681567        9.9370713536
 Na         9.1559930904        7.9408555846        1.3130098819
 Na         2.1144396389        9.4149360946       12.1746381202
 Na         5.7503467662        3.6778293108        8.5037273055
 Na        15.2297204291       19.6461092115       16.7019438876
 Na        13.7481468730       20.6521810000       10.9866471246
 Na         6.7558416477        8.1689037454       11.7194338240
 Na         4.2300835572       10.4354891977       16.5628509081
 Si         1.0418318962        3.5230554660        6.1158640800
 Si         8.2152796182        4.4081174327        0.9308814667
 Si         4.4159642187       12.0383130529        0.7743876109
 Si        17.7466026259       16.8063181204        6.5124147416
 Si        17.4967354511        2.5957324317       19.8099869363
 Si         1.7355034045        7.4567831981        3.3674123133
 Si        18.1458024359       12.4818654748        3.2058825783
 Si         3.6458409708        1.8896192303        5.6020077225
 Si         6.2610313260        4.1132568122        3.1854207676
 Si         9.4903126095        2.1782774691       15.7394015695
 Si        17.8031438277        2.6254667853       16.7363661625
 Si         9.9012270031       18.0282868096        2.2832086156
 Si        16.4221747723       18.9277155137        4.8090847529
 Si        14.4015449595       12.9207435531       20.1948198247
 Si        19.1157720869       17.3481285785        9.3672333556
 Si        10.8467129234        3.4165236349        1.8452298574
 Si         8.6476539362       18.5848373026       19.0696093305
 Si        12.3304601915        6.4856840177       16.1800037518
 Si        17.6140010107        5.3171093610        9.4214022778
 Si        11.7366871646        9.0014920949        0.9574125584
 Si        14.9027720300        5.2430963092        4.4209352276
 Si         3.2094631772       17.6808620741       12.9542040511
 Si        18.0870341371       13.0112465485       16.0407623343
 Si         2.8165935512       20.6551676575       19.6043872179
 Si        14.0698304851       17.6219984086       19.4753974227
 Si        14.5717412035       20.4774980863       19.7274258734
 Si        13.6187831616       16.5674315681       16.6615146154
 Si        18.2620743961       18.8439153830       16.9697282024
 Si         4.9112775985       20.7161465825        2.7439385513
 Si         0.8168983199        6.8681472855       10.1723849858
 Si         8.0813544145       16.1090613630        0.9749119605
 Si         3.7970836369       18.5762512762       17.5374414032
 Si        18.3208781909       10.6115595654       20.2385305704
 Si         7.7004288802        2.2119279210       18.2585611790
 Si        19.5619980077        7.5674758124       16.9232073903
 Si        16.8813799199       14.8734396121        1.6130019506
 Si         2.6845375362        8.9080605654        8.9850854647
 Si        16.2295070400       11.6464844941       17.9602273446
 Si        18.9903700783        2.6425572229        8.6842326262
 Si         0.3428045088       10.1712165631       15.4107414709
 Si        15.9178899928       19.9884658580       12.7667049084
 Si        15.2668798245        5.2036084239        7.3209901279
 Si         3.5047904052        4.3693515586       14.3137889094
 Si        15.4730599189        2.8172656355       14.7505476063
 Si         0.0164789455       19.4954639808       19.9744419310
 Si         1.2558519376       14.9679023229       16.9196498361
 Si         1.8004974628        6.6704840700       19.3783708163
 Si         7.4281531458        6.5636633101       18.2403863610
 Si         4.5572070721        0.8986109831        8.2196496209
 Si        16.2726579284        5.0789232933        1.6027160910
 Si        12.3670271888        3.5228449741        4.5719154725
 Si         2.6192429572       16.1699463325        3.7360326338
 Si         0.4886913732        3.3668963220       14.3814464032
 Si         4.5920933127        7.4668237737       18.6016044016
 Si        17.2109370080       17.2589300156       12.0153434723
 Si         5.5170434373       18.2661402212       15.0113836908
 Si         1.6198687736       11.1793561928        7.1906592333
 Si        15.0219978848       16.5401278227        3.0870841326
 Si         7.3768986951       20.1527046940       13.5881073271
 Si         2.0519353982        4.0070906876        0.9376724406
 Si         1.3141913708       17.7437531065       15.7218250686
 Si        16.6336414066        8.1517794639        1.4224851922
 Se         4.5148575251        8.4633593114       13.5668405846
 Se         6.8402657733        5.8644851018        6.7759975380
 Se         5.7461480211        5.8435695278       10.2057566939
 Se         8.3484352551        6.2978714426       13.1737734603
 Se         8.5188057281        3.1848929743        9.5367964975
 Se        11.4214712611        1.7236081315       12.3543379971
 Se         3.0719118198       12.3019629028       12.1782329505
 Se         6.1618903749       12.9455916654        4.7107750555
 Se         6.8976708989       10.1465827065        8.4919699984
 Se         7.7782028400       10.9108097315       12.3944228182
 Se         9.5533958989        7.4282829232        3.9756111335
 Se        10.2062563958        7.7017184711        8.6598469561
 Se        11.3526714766        9.3428471257       13.3167818865
 Se         8.3643779442       11.3349627570       17.4235878990
 Se        12.3192513277        5.3631860716       10.9066824029
 Se        15.8969918074        7.7718829613       13.2797149691
 Se         6.5902057980       16.6360584997        5.9458717525
 Se         3.8567941161       14.9747938124        8.3346614853
 Se         6.7408680007       14.8179719214       10.8485779876
 Se        10.0238348625       13.5718662976        3.5290055918
 Se         9.4291342568       13.7345107492        8.2045821591
 Se        11.1873980333       12.9514735026       11.6115033474
 Se         8.8797545341       14.3723382753       15.1541575801
 Se        16.6539893572        8.9857001011        6.3552522690
 Se        12.8609793234       11.5374006402        5.8795274864
 Se        15.1714599397       12.2294315658       12.4872263047
 Se        12.4253926916       12.1394916053       15.9599604314
 Se        13.5340104358        9.7656313880        9.6510792433
 Se         8.6331378652       17.9827444481        9.9027589903
 Se        11.6876123698       16.8060552091       12.5477108650
 Se        11.0198704448       17.9014326178        6.4776965730
 Se        12.9584102508       15.6328656919        8.7201839519
 Se        16.0792645150       12.9952528587        8.1954717384
 Cd         5.6811047288        7.6799398059        8.3391771272
 Cd         8.7730449319        5.6183044854        8.5510547044
 Cd         3.5622916533        6.6865282254       11.5196711907
 Cd         3.4718508339        7.4960388930       15.6519582464
 Cd        11.0168471112        2.7102699816       10.1036577594
 Cd         8.1797390577        0.7018353217        8.4492230626
 Cd         3.9789847979       13.4063743999        6.0212204657
 Cd         7.0547671608       10.7605196969        5.8518711125
 Cd         5.3560056464       11.1690592690       13.2717698891
 Cd         6.6918256614       12.3145355837       15.8939773649
 Cd         6.8059155044        7.2477037064        4.4465273297
 Cd         9.1741021136        8.7174471246        6.3118078934
 Cd        10.7198116599        6.7553804802       12.2613752564
 Cd         9.3098665204        5.6862730337       15.5467899862
 Cd        12.8474621907        7.2316760421        9.1542530816
 Cd        13.4821929537        8.1308269567       14.0055400290
 Cd         8.0119544164       14.9552746425        4.3681190952
 Cd         4.2072666763       14.2293753621       10.8130615185
 Cd         8.8136733588       13.7170237420       12.6032351571
 Cd         6.9237356027       21.6591691510        5.7226687421
 Cd        10.2610066829       12.4060376966        5.9577962296
 Cd         7.6450086338       12.3014701499       10.0181988907
 Cd        11.3038804195       15.3205554063       14.8399527082
 Cd        14.3879827892        9.7841219433        1.1600856519
 Cd        14.9673640158       10.7786115119        7.3969340346
 Cd        12.5931312896       11.6559108874       13.3966412696
 Cd        13.1948650040        9.8778906518       17.0414020247
 Cd        15.4274949265        9.7859021253       11.3411539212
 Cd         8.6563702291       18.3847667267        5.6456842048
 Cd        10.0713502044       18.8362874135       11.9974130686
 Cd        13.7985942640       17.6760075284       10.9099026331
 Cd        10.3066683419       16.3153640463        8.5677352132
 Cd        17.2455221260       11.8843552276       10.2814912789
