417
 i =     7800, time =    15600.000, E =     -8967.2273145974
  O        14.4902215657        2.2096685658        8.6533573371
  O        15.7093450034        1.1149590504        5.2401573212
  O         9.4358720249       17.5471352098       16.8075481084
  O         6.1395961130       10.9825726573        0.6521860320
  O         2.7024249899        6.4581361725       10.4629632038
  O         1.8321647581        4.9257232087       12.5119769545
  O        16.6943816487        6.2312905110        2.9603796416
  O         5.0494521081       15.8037021282       14.0168841140
  O        15.5536328191       19.4451103180       15.8558317049
  O        12.7926251041        2.8082445160        6.1682944886
  O        11.6818383628        2.3065342529        0.8790276699
  O        13.1244466520       19.6316742071        5.0852057568
  O        11.9475908395        7.2684344121        1.4017604692
  O         5.0030828963       18.8060493676       -1.1318839907
  O         6.7501839377        3.8636613069        4.5223182128
  O         2.9386090575        1.8247731738        5.8217631822
  O        19.2257596824       15.7066907571        2.9906181794
  O        14.4722352990       19.7009388889       12.5340884030
  O        18.2845520720       20.7867343766        3.2404361654
  O         6.6964939473        5.2615943827       15.7280057643
  O         1.9849829569       17.9268881320       10.8391628162
  O        16.8007845875        2.8498949904        9.7626531248
  O        19.5979670986       11.6819941047        7.8313467784
  O         3.1273094986        2.8741307823        0.7012562728
  O         5.4002595249        9.4441949767       17.9585599004
  O        17.1135900400       13.3817679883        1.2087177522
  O         3.1559144762       10.5481341121        6.5114392630
  O        18.3875512521       19.9326280192        5.7246609195
  O         0.8414353124        8.6575981642       12.8667632621
  O        17.8674329218       12.6237003136       18.1005788438
  O        15.7717396701       16.8226351171       16.3386656187
  O         4.6149760486        6.2522204820        4.7845359442
  O        12.9042820342       19.8046467743        7.7057654341
  O         4.0423467420       19.6233544695       11.6944375993
  O         6.9238373986        8.5335010160        0.4904463747
  O         3.8525628917       19.1871770345        4.5842500879
  O         0.4310583580       11.2495178906       12.8643680455
  O         9.6994112863       18.7605476450        4.2651523655
  O        12.5716083655       19.7661293741        2.4043481556
  O        18.7431393445        6.6900813542       14.2301497406
  O        10.1131646845        6.3259844935        3.3525987474
  O         2.6430348748        7.0170756283        6.3620629127
  O         9.6951674062       19.9991896129        0.3337325611
  O         2.7007857242       19.1811790464        0.1777214305
  O         0.9717021030       15.1892063427        6.0228137322
  O        19.7577352827        8.2879845373       -0.3499464741
  O         3.2336927706        9.4999608715       16.8424574662
  O         2.7994097448        4.4906052590        5.4072924044
  O         2.3895899357       15.7197429928       13.4448625133
  O         3.3426858991       19.6872871946       16.2592941133
  O         1.8819103574       10.8034098338       15.0198166078
  O        17.7776636841        4.5214709454       16.1853073882
  O        18.5152160544        5.9034713736       -0.5826461500
  O         5.0478039823       13.2639690552       19.2714714199
  O         2.6658460027       17.1157357681       17.0809809918
  O         8.1009432315        5.0766285800       18.4594015398
  O        17.1877089597       17.5730232927        9.0193324767
  O         7.1343660983        6.7942728722        2.4237697908
  O        18.9514843276       17.3826078954        0.9161056249
  O         7.8059041127       18.6813876288       18.4306644117
  O        16.5727668831       11.3423185443       13.8660171535
  O        19.1421293958       17.3350211247        7.2738495237
  O        20.0419712764        3.0517856305        5.1788264959
  O        13.2217664614        2.6069880810       12.5149273868
  O         5.2397065525       18.8411452120        1.5168516853
  O         6.9056942549       16.3573428626       17.2210191583
  O         3.3040859009       17.8004229391       14.4076144959
  O         7.9340649521       10.2260847324       17.9915136193
  O        13.6875902960       15.1621364021       15.7940505791
  O         6.0610087390        2.0186936944       11.4249356785
  O        11.1629644669       15.9257374423       15.8675577440
  O         9.6794740622        3.1814102310       -0.5577930387
  O        15.4648624764       11.1424168562       18.6333223719
  O        19.0006145962        5.6502282472        3.8511633129
  O        10.2183991958        5.3499866856        0.8829051274
  O        19.7044417567       20.0985013873       13.1766615181
  O        18.3256715641       15.1654239908       18.6910201276
  O         5.7202554378        1.4934055378        5.0851646857
  O        13.9503504768        1.6430142541       17.2767153956
  O        16.4876129454       18.7988865434        0.8366529479
  O         7.8946711913        9.3565917569        3.0012244595
  O         6.4126860787       18.6067868784        3.8133231213
  O        16.8466332672        3.9036972373        4.3617102148
  O        18.8509651161       12.0342505290       15.1473334200
  O        11.8879832320       13.7938844183       17.2567156425
  O         4.2939278901       12.7214449228       16.7370426680
  O        20.1233232830        2.1632339076        1.4102620219
  O        13.0287365937       17.3412710555       -0.7230528185
  O         1.8919027714        4.1445571137       10.0518477275
  O        20.1165156380       10.6680380069        0.6496775164
  O         6.9871808952       18.7879820496       14.2531994391
  O         1.6073694189       13.3363891187       14.1392568270
  O         4.1921833445        4.7300865031       18.3418797370
  O         1.1028216693        8.3801694958       15.5303508416
  O         6.4687630703       16.4713823478        2.1933625505
  O        14.6113882447        5.7072900504       19.4074959136
  O         2.5715322571        3.6948548962       14.6193990927
  O        18.3613167448        2.7518952258       14.3282662789
  O        19.9161031464       15.0035602148        8.6174960059
  O         4.5817969120       18.0743298433        9.5786964887
  O         1.1480113519       18.4895600092       15.5544123770
  O        17.8667444227       10.1292640527       18.7641176667
  O        16.1005522984       14.1103114718       16.0662430667
  O         5.5835053464        3.4068762966        0.7567947671
  O        19.0606225078       17.5186166561       17.6510234724
  O        17.9305485625       18.2441675409       15.5399110985
  O         1.4262882584       16.0720997360       -0.2669156345
  O        10.0254284122        1.2581662153       14.2615764888
  O         4.1744384057       17.0298843920       11.8998609865
  O        18.2164158589        9.3466225952       14.4896208108
  O        20.1310979012       10.2850896575       17.3985007164
  O        15.0340359237       19.0185257000        9.3048413058
  O        18.7305712807        9.8040043062       10.9357728340
  O         7.6453499315        1.9893364714       14.4431925396
  O        15.9105245495       17.8720051786       13.8937107036
  O         4.1359377684        6.2116416267        1.0832841955
  O         3.5168399831        2.7725742493       12.0848541616
  O         7.7667266465        1.3829940085        9.4450074653
  O         3.4088800440       14.8252074878       17.9876628388
  O         5.9830747256       20.4665097705       16.2555043877
  O        14.8541446483       16.6661877184        1.1078480422
  O        17.0585554466       15.5793891355        6.9875151984
  O        10.7588610265        1.8254332739        3.4926935617
  O         2.3666438207       16.8041932180        7.7109165887
  O         3.9106955113        9.5736621798        3.9954308633
  O         3.0573684713       14.5022462750        3.2207669729
  O        12.9066222478       14.9210947916        0.6280713273
  O         1.8731213111        5.9580674543       18.7335377834
  O        12.5227956624       17.4123584693        3.7213842926
  O         3.1754251234        9.0794961779        0.2071354339
  O         4.5319668586        4.9999535974       13.2409448224
  O         2.4618936261        1.5345503119        9.3112664602
  O        16.2803421146        4.2029382076       13.7815751861
  O         7.1889068654        1.5240764989        0.2692960304
  O         8.8175386442       16.2319948180       -0.3173834558
  O         4.7899587957       12.4170367015        2.4625129933
  O        16.6312421735       18.2264190965        6.5645404245
  O         5.7054523307       18.5002243981        6.3826324364
  O        16.1785390131        3.9253647876        7.3673150789
  O        12.2897749733       19.8992604683       15.4518451476
  O         7.8819365119       18.7957882882        1.7180578749
  O        19.3226571281       15.0387940117       12.5796062321
  O        16.6618309312        1.2724610199        7.5989691783
  O        18.5265403806        2.5271554682       11.6488703225
  O         1.7689997003        4.3454389166        2.4672337793
  O         2.2005306348       12.2743711640        1.9984428148
  O         1.9752822658       10.1340338705       10.8851282625
  O         2.1155514713        6.4890288567        3.7232491775
  O        11.4111960974        1.4785558313       17.8577379739
  O         5.0827585295        1.3569800114       13.8292888017
  O         8.1121635654        3.9113640918        1.4945372238
  O        11.8103109788       13.6317553608       14.5033524997
  O         7.2663319885       -0.6620706360       11.0437710892
  O        19.2803283543        2.4467092802        9.0449941086
  O         4.0721370911        7.2215237220       17.8438842295
  O         6.8788344072        1.9959939351        2.7757287531
  O        10.6226887340       18.0207763398       14.4845350171
  O         4.5086770530        2.1149905616       17.9737557709
  O        11.8132766121       19.4779592094       12.7877374315
  O         8.7340152740       16.2096220907       14.5174748810
  O         2.8592815070        2.0700690865        3.1904231980
  O         3.8785954559       16.8486121034        0.2980513352
  O        18.8519995545       18.2584783933        3.4524454218
  O         7.1818023106       13.3266115991        1.4620569204
  O        18.2630478776        3.9410277954        2.1480239438
  O        15.2999685645        1.6278103669        1.3166864855
  O         1.3248497076       19.6176008185        4.2766204546
  O        19.9878920704        6.6447321516        1.6577600315
  O         8.5153742410        1.7377804339        4.8403191940
  O         9.5304832242        3.6666909894       13.3478229555
  O        21.4768712571       13.8577216395       11.5629257275
  O        13.1129000819        3.1029912008        2.8820332491
  O        14.8239007003       18.4220353222        3.1219882015
  O         2.6646990538       12.3081762829       18.8062736311
  O        16.9247865182       16.8153798931        2.5941875643
  O        17.7273936273       19.9305424599       10.0744428700
  O        14.7694460031       15.1902357960       18.2295284430
  O         8.6096993882        1.5125155014       11.9564100212
  O        15.2865009220        7.1936690497       16.0699019373
  O        16.7902163787       10.8935927422       16.3468443503
  O        16.3695331867       20.5270407275       18.0991411884
  O         1.8396193718        3.5217640666        7.5761933036
  O        16.9624017820       20.2382550762       12.8657770246
  O        15.9920512839        2.6108016631       15.9163639116
  O        10.8121457738        1.1204984082        6.1041960949
  O        12.3754244313        3.3513753824       15.8900617230
  O        16.3462474647       18.1429317942       11.3470430591
  O        17.9552298800        1.8053392805        0.5971718493
  O         1.3823371410       10.0343238919        4.7499549072
  O        19.7442606260       13.1766376222        0.4100198287
  O         3.0952247016       12.0968223778        4.4597772889
  O         9.4111142867        7.8837856333        1.3155567321
  O        19.4600332187        5.8716314627       10.8139821931
  O        13.0534902561       20.1848843650       10.4954938451
  O        19.1547603514       20.2247027600       17.0570545505
 Na        19.4562121846       13.5110896743        2.9298028453
 Na        11.3936604673        4.3243657193        4.3114526877
 Na        14.5147606836        9.0100043032       18.4604460819
 Na         6.2775255269       16.4907162107       10.7521566872
 Na         4.3816549480        8.3459704410        6.2078721544
 Na        17.6208874692       13.8921944055       13.3130877098
 Na         1.7904024542        1.1971973791       11.6060797446
 Na        18.1699053292       13.6001920217        7.6628234467
 Na        17.7916062334       10.5829074931        8.9526765584
 Na         7.9282749141       17.4274062906        5.1622607797
 Na        10.8525279584        4.6837180849       14.9293406185
 Na         1.8029132019       10.2700566445        8.5350043916
 Na         6.2666700137        6.0914415615        0.1349929115
 Na        10.4143564763       18.4287125049        2.2567690937
 Na        12.8650624627       17.6404574584       16.3679731620
 Na         9.8652356258        0.8407644711        8.6481982372
 Na         8.2161194679        5.1899515260        3.5655782194
 Na        18.3136001578       13.9226869686       16.4318447763
 Na        13.9471186754        3.5855551926       14.4030383378
 Na         5.9076229500       10.6102866776        3.3773725336
 Na        16.3600185435       11.2757260439        1.4843066846
 Na         0.8296203706       13.0592571338        9.7014556565
 Na         6.5416095654       18.7715309488        8.4792835620
 Na        14.1832069952        3.4321351473        0.8029367974
 Na        18.7785895484       16.1550423732       10.3055122754
 Na         4.4384469901       16.8770295321        7.3010419881
 Na        15.9440210855        7.5783595669        4.8299067158
 Na         5.5740939653        6.7742793304       14.2374111983
 Na        12.5585787999        6.2875680078       18.8917554469
 Na        20.0362543764       19.7213132121       -0.0940256299
 Na        13.2962593714       19.5919350757       19.3804428715
 Na        11.4131445319       17.3646045399        5.7219190713
 Na         2.7693512393        5.6490926651        8.1553562317
 Na         8.9901190121        9.6915738056        7.7011430117
 Na        10.4962091821       12.8371219885        5.4056509964
 Na         2.3788177640       13.1197486900        6.4767137894
 Na         3.5698628783       14.3980529465       15.3252331653
 Na         7.5453062772       12.3907872886       10.8316088881
 Na        16.6820729015        6.4421909153        0.7901111071
 Na        20.6369470380       18.7458913026        8.6629103790
 Na        20.2520549944        5.3665039622       15.3309003991
 Na         4.7205621473       15.2105899178        1.6888675438
 Na        10.9508420661       15.4484706957       -0.8465810393
 Na         2.7519640485       15.5325421889        9.8928239545
 Na         1.1169065423        1.9135252366       15.1304020549
 Na        15.4848091986        2.1556192791        3.4235125284
 Na        18.6483960646        4.7090231702       12.7024481347
 Na        13.6090444822       12.9461734859       18.6300447690
 Na         4.6999453100        4.5624325205        3.2920431186
 Na        14.7716485175        3.6108406522        5.4063691135
 Na        16.0957145386       14.5900209405        2.6437834475
 Na        16.3654841947        6.6693967648       14.0747225063
 Na        15.2117586406        5.3926893820       17.3069506609
 Na        19.9133043135        7.8794837066        5.5806299045
 Na         4.6300296626        4.1158354472       15.8131526613
 Na        20.2388315073       17.8937663635       12.8978807761
 Na         3.5155238705       11.9357899987       11.5961657985
 Na        17.5011114053        7.1549061295       17.0409116232
 Na         7.2379100209        4.5562847237       13.3703629024
 Na        18.5081404501        3.4906339599       18.0876540640
 Na         4.1927051133        1.4269359642        7.5532501868
 Na         7.4846317267        3.1714499932       17.0196532106
 Na        11.3638731808        3.8821142283       11.7810978163
 Na         4.8149963153        5.2422942244       10.8430146890
 Na         6.8565636283       14.0038932562       17.7662631699
 Na         8.5704567129       17.9718850383       12.7393051012
 Na         5.0104004006       10.7650193280       15.9259271538
 Na        10.0919272339       12.3823293953       17.5569468187
 Na        14.3376479875        6.6772557421        2.1452613480
 Na         8.4634209618        9.7174374776       15.6326134158
 Na         4.6216397550        7.6104994117        2.8061551750
 Na         1.9482884443        9.2143338047        2.2079285092
 Na        18.2920389715       15.1996075173        4.9970505155
 Na         9.0896031012       11.4457713784        2.0185886330
 Na        14.9436511337       12.1552853474       15.0903089120
 Na        15.4855933547        3.3013766658       11.9290215766
 Na         1.9386733414       16.2924641219        3.9585061904
 Na        18.2986212269        3.5170123978        6.1262137185
 Si        15.8699236776       19.0098256272       12.6885847122
 Si         8.1429874737       17.1624986591       17.8996893445
 Si        18.4317242474        1.6044854418       13.0820436817
 Si        10.4575833508        6.7309290164        1.7997493609
 Si        10.5435723655        1.8887415865       -0.2030338966
 Si         3.0403456893        6.1134399081        5.1048804162
 Si        19.8477847278        6.6526205648       -0.0456817944
 Si         7.8278197559        8.1302123453        1.9099175257
 Si         2.6779936155       18.1967033419       15.8635932382
 Si         3.5364116747        6.1691357756       -0.3422595161
 Si        19.1576262391       18.7258448655       16.5218764591
 Si        16.7717066330       19.8443693827        6.1703287806
 Si        16.8589541812       11.2238744439       17.9872551126
 Si        18.5449328142        2.4123098627        1.9748390966
 Si        20.3202785476       16.0338979813        7.4313397320
 Si        19.2317841160       16.5314976546       -0.4418795463
 Si         8.9908811912        4.5107186473        0.2415223902
 Si        19.3972945613        8.1681666953       14.2018581860
 Si         4.1338002005       18.5361754805        0.2773183164
 Si        15.1957564603       15.2918001473       16.5881991544
 Si        15.7590933154       17.7446165021        1.9473211934
 Si        17.5977978838       10.8136333526       14.8854676409
 Si         3.8076340802       16.5419506772       13.4170178002
 Si        20.3416007487        5.6243603966        2.9321650653
 Si        16.0683588673        2.6226339341        8.2755945910
 Si         6.9455875196        2.7209855104        1.3738945812
 Si         1.5810228886        5.4610184276       10.9873971253
 Si        12.4999406059        1.2476754109        6.2325366408
 Si        18.1888713379        2.1039296197       10.1195385030
 Si        19.4804181510        9.7701466331       18.7726262307
 Si         9.8960698961        0.9081453747        4.6579495254
 Si        13.7714392241       16.0442708477       -0.0850170719
 Si         1.7393324106        9.6921124751       16.2176000875
 Si         7.3723943963        0.9424374766       11.0197639958
 Si        16.5541695004       18.6934295360        9.8819042068
 Si        20.0389761374        9.9413656562       11.8273592856
 Si        13.8832325614       20.1819147226        9.0057351739
 Si         2.9181644157       10.4734938516        4.9139214968
 Si         4.2927505303        3.2865827652       -0.2533085398
 Si        16.3153471441       18.0908099961       15.4897163688
 Si         5.8525882099       12.4780033874        1.1224049796
 Si        15.4365149886       20.7517237068       16.8227154187
 Si         4.6937366523        1.5741148538       12.2143880051
 Si         2.8496283536       16.2329483172       18.4782747851
 Si         2.7550879585        0.9876129657        4.4432568929
 Si        12.4359932119        1.9389163619       16.5930268290
 Si         9.9307348462       16.8651641432       15.3959886557
 Si        17.5163416262       17.1093326552        7.4116413907
 Si        18.1683798589       13.6217001455        0.0256795342
 Si         8.9448481196        2.1585634181       13.4738771403
 Si        17.5533991256        4.9295474450        3.4197450748
 Si         6.3841474810       20.2648546051       14.6175290552
 Si        11.1945865461       19.5152809603       14.2570642811
 Si         7.0114271741        2.3226181133        4.4598556115
 Si         3.6009401604       18.1900998029       10.8288898671
 Si         8.1060433109       19.5548777349        0.3098263181
 Si        13.0626496613       20.4437729831       12.1480467037
 Si         5.4824622226       19.2151229822        5.0145864869
 Si         0.8663801788       11.8714729659       14.2982434693
 Si         1.3919838512       14.4643630282       12.8000657928
 Si         3.2616119240       12.8947304094        3.0437758606
 Si        13.3006300486       18.8022999140        3.6243365112
 Si        17.1118542683        3.5774761899       15.0241221712
 Si         4.6833083082       20.0229250696       17.2254672867
 Si         1.6541349661        2.8597431956        9.0830792585
 Si         3.9270569871        8.8058057469       18.2795821661
 Si         6.4441182302       18.0633863890        2.3021607854
 Si         2.1026298812        2.8255232306        1.9058913974
 Si         1.5299182996       12.0575977479        0.5270902565
 Si        16.4561141671        1.0071535954        0.4007560232
 Si        18.5543454780       17.0074674117        2.4545010931
 Si        12.1286227584       14.4988309913       15.8936364447
 Si         3.1708321261        4.0847938583       13.1968127281
 Si         6.6756186844        9.9028369576       -0.4735849719
 Si         1.9834880045        3.2489216816        5.9731054764
 Si        12.0138412043        2.0016759853        2.5040353100
 Si        19.0341277877       19.7258459108        4.2355559050
 Si         3.8098199497       13.2389583359       18.1467885738
 Se         4.8972493984        9.3215118863       13.2165211762
 Se         7.9875465675        7.1125930720        6.6506705211
 Se         5.2978247244        3.9214471802        8.2557889245
 Se         8.0179437166        6.4450579811       11.4296450201
 Se        10.2729970485        4.0900634400        9.1462069042
 Se        14.0683567501        5.1118529475        9.9396661410
 Se         4.7834691443       13.1522691467        9.3387118952
 Se         6.7798208261       11.2943782975        6.0961542597
 Se         5.3393089955        8.5343627595        9.3125200821
 Se         9.5335470163       10.1636985199       12.2970928801
 Se        11.1984767982       10.0929482676        4.7483781735
 Se        11.3733473881        8.4995931341        9.1418829761
 Se        12.3137246375        6.7192948959       13.1710747371
 Se        10.3018318925        7.5403497604       16.5014193641
 Se        13.3713925135        6.2196827423        5.8618743803
 Se        15.7757110160        8.1527976623       11.5605664869
 Se         9.9281898869       14.8876631927        3.6464966058
 Se         7.1852232010       16.0227510869        7.7857520606
 Se         9.4026018239       14.9204787826       11.5375562981
 Se        11.4576235444       10.8043052729        0.3278709405
 Se         9.8829320415       12.2987897707        8.2422401072
 Se        13.1209629164       11.7987757079       11.6859999629
 Se         7.6596888873       12.4838728130       15.5514049791
 Se        14.8280125791        9.4772357699        2.9298807706
 Se        14.4588320297       10.6419529073        7.4842154414
 Se        16.9192736401       13.0033663032       10.4699419088
 Se        12.7409569903       10.4210635668       16.2187087443
 Se        17.7464611053        7.6793413839        7.5542761409
 Se        10.5249186306       17.3604239715        8.5003078889
 Se        13.7139146426       16.3080269239       11.9900059152
 Se        13.8169321222       13.7079533838        4.2696740323
 Se        13.2595946803       14.6243452953        8.1186585239
 Se        17.3278179956       12.5438726882        4.6851678103
 Cd         6.0797694121        5.3474860201        6.2026883711
 Cd         9.2063212719        6.5277409079        9.0109612068
 Cd         3.4050758849        8.3559292349       11.2739014402
 Cd         8.1533459466        6.2493657249       16.6482471117
 Cd        12.5322752421        4.4972519322        7.8274021060
 Cd         7.7000765507        3.4557195960        9.0596631289
 Cd         5.0363423419       10.9107203566        8.1083477015
 Cd         6.6662244755       13.5600523711        7.0867591310
 Cd         6.8526465570        8.8122362327       11.4677638206
 Cd        10.0252239378        9.0192954956       18.6101317336
 Cd         9.3180941628        8.1573436665        4.7414209303
 Cd        12.7164375165        8.5428549919        6.8359398921
 Cd        10.0758480829        7.6662194580       12.6413274182
 Cd        13.7133309810        8.1223326120       14.9484039130
 Cd        15.6363712809        6.1405817615        7.9154460027
 Cd        13.4038199271        7.5565395203       10.8454278892
 Cd         9.2902580782       14.9211871834        8.8226323076
 Cd         8.8294278790       13.9592181532       13.8728571766
 Cd         6.5852772740       16.9968595423       15.1860166311
 Cd         8.2055946217       15.2910214917        1.7207013400
 Cd        12.4137655553       12.1948679690        7.9918376018
 Cd        11.1091905591       10.8844364319       10.2236084327
 Cd        11.7795403773       11.2820035320       14.0521127426
 Cd        12.1329783803        9.3880214359        2.4487791249
 Cd        14.8887016079       11.1429858288        4.8546221061
 Cd        14.8316480990       14.4818398937       10.1940039744
 Cd        16.3410819016       10.6680042571       11.5911606466
 Cd        18.2487801416        7.7255222969       10.1678524273
 Cd        12.3437867920       15.2372209652        2.7472151492
 Cd        12.5588433285       17.0724985409        9.9409608583
 Cd        15.2599654749       14.5194400548        6.3347710045
 Cd        12.0386139729       14.2797410951       12.2683785517
 Cd        19.2137329375       11.1732350736        5.8467193090
