417
 i =     7200, time =    14400.000, E =     -8967.2092717870
  O        14.4293818847        2.1121744916        8.7411879947
  O        15.8957687049        1.1682364509        5.1721606481
  O         9.7747022504       17.4260204429       17.0219874489
  O         6.1686895441       10.9172255058        0.8187961656
  O         2.9764572503        6.3778498165       10.6089600748
  O         1.9607945755        4.7027315574       12.6190936258
  O        16.3618796416        5.9899915419        2.6587296637
  O         5.1034910391       15.6859819926       14.3598590979
  O        15.5174717030       19.2925171952       15.9542405832
  O        13.0671969124        2.5507251035        6.1734056163
  O        11.6169806302        2.4625606626        1.1921440499
  O        13.0884658905       19.5659282480        4.9770796465
  O        12.0395824789        7.1116374691        1.4864414001
  O         4.9588446621       18.9147014928       -0.9418352304
  O         6.8372455626        3.9313155185        4.5362828168
  O         2.6921020040        1.9881255761        5.7405725113
  O        19.2700441733       15.5540223495        3.1335649831
  O        14.3482417129       19.3512761369       12.7031915132
  O        18.0616110771       20.4012529505        3.1098512311
  O         6.5512274518        5.1961467535       15.7625092292
  O         2.2365328475       17.9209900911       10.7476227394
  O        16.6368880325        2.7589605469        9.8443654055
  O        19.7083253171       11.5635659442        7.6476378805
  O         2.8344218145        2.8695445446        0.6983317673
  O         5.6030257234        9.5334574808       17.8809034080
  O        17.3206013995       13.5452123341        1.3076536403
  O         3.2981230634       10.3970519233        6.5589212255
  O        18.5002111411       19.7729959858        5.7190544307
  O         0.6768239695        8.5781840243       12.7575447703
  O        17.9028238837       12.7477647084       18.1407225790
  O        15.4656582821       16.7893843541       16.2155455775
  O         4.6395400584        6.3572533475        4.8350232877
  O        12.7011891936       19.6910399764        7.7739168354
  O         3.9373293849       19.7225789704       11.5376856253
  O         6.7842008524        8.4837863147        0.6534725605
  O         3.9166264682       19.4915109667        4.5017103389
  O         0.8434679304       11.1667419373       12.6038537942
  O         9.7126555595       18.9567662198        4.3631798531
  O        12.7280349353       19.8526804271        2.3966374686
  O        18.5887010054        6.8714122635       14.3395747757
  O        10.2137870366        6.3886211583        3.4007046487
  O         2.4650395353        7.1482804555        6.4809599369
  O         9.8519486911       20.0248489662        0.4255114796
  O         2.7244282111       18.9642249905        0.5523178524
  O         0.7596418499       14.7089642571        5.9821199612
  O        19.3116735068        8.0918493951       -0.5773537858
  O         3.2707319498        9.0763877163       16.6723917340
  O         2.7817050361        4.6313938152        5.3666877972
  O         2.5700435874       15.6719253990       13.5744145727
  O         3.2923498172       19.6502400839       16.5410059604
  O         2.0703378470       10.6758281435       14.9120886871
  O        17.9171247801        4.2883469251       16.0033542524
  O        18.6445114521        5.5797881525       -0.6374732241
  O         5.0642769166       13.1559063977       19.3995195087
  O         2.9802238461       17.1022300409       17.2004938963
  O         7.9449343392        5.0733955174       18.5234478870
  O        17.1211650148       17.2203831590        9.1084111200
  O         6.9385658931        6.6270149926        2.4536463026
  O        18.9835280356       17.3333699982        1.1274488377
  O         8.0512323120       18.6074063967       18.4195299471
  O        16.6633327212       11.6232936946       13.8227661764
  O        18.9572530920       17.0454169375        7.1706874465
  O        19.8245689607        3.2409074932        5.0024678076
  O        13.4701094723        2.5490397095       12.4296553912
  O         5.1995070631       18.5621836674        1.7138826735
  O         7.2875753266       16.2477045336       17.4021900473
  O         3.4371503623       17.7386573584       14.6508840846
  O         8.1267500192       10.2177552133       18.2847093886
  O        13.8335360016       14.5331402823       15.5560234647
  O         6.1369509259        1.8333587730       11.5346772465
  O        11.3888868505       15.8741574854       15.6401180971
  O         9.7327804666        3.1255596353       -0.6153739479
  O        15.4663337751       11.4742221726       18.4548433536
  O        18.9852236495        5.8401762893        3.7225907407
  O        10.1950717647        5.3914314143        0.8168073869
  O        19.4819013233       19.7034707493       13.1364198621
  O        18.6283869537       15.2251658904       18.9946264776
  O         6.1577063603        1.4468541404        5.3546354141
  O        14.0310867249        1.5933706348       17.1922894321
  O        16.4346947444       18.8525666341        0.8754885085
  O         7.9243176610        9.1797346604        3.1678154784
  O         6.3383819999       18.5790908790        4.0367258778
  O        16.8228489474        4.8458424014        5.0126526744
  O        19.0549830865       12.1737887998       14.9173398584
  O        11.7861632869       13.7653727349       17.1880368574
  O         4.4742412959       12.4790331400       16.9386607599
  O        19.9384473669        2.2492800422        1.6920279103
  O        13.0521430926       17.0170912342       -1.0546595992
  O         1.6169633650        4.1445662614       10.0372001617
  O        20.1845030594       10.5232165790        0.5215628295
  O         7.3096096289       18.7626706200       14.8092197147
  O         1.9616750053       13.1937584804       14.0065149018
  O         4.0753045915        4.7091114674       18.6046579883
  O         1.1052773065        8.2249496763       15.3818186935
  O         6.6829097306       16.3635153629        2.6506031332
  O        14.7774405904        5.5571506918       19.2263307814
  O         2.7341271615        3.8727401261       14.9188520773
  O        18.2983712194        2.5029903727       14.1526893766
  O        19.9060704027       15.0385644522        8.6302173241
  O         4.6431976347       17.6664436350        9.7679276907
  O         1.0940096216       18.1903888443       15.7571161185
  O        17.8044093501        9.9520055444       18.5272178040
  O        16.3239721883       14.2941057518       15.7070538683
  O         5.5525751920        3.3017373452        0.8080644853
  O        19.1894155829       17.5355974810       18.0005047418
  O        17.9349038421       18.0437535819       15.9131348273
  O         1.6438486781       16.0542816041       -0.0847989134
  O         9.9083928546        1.1872934091       14.5213662990
  O         4.4544101373       17.2405845501       12.3343014322
  O        18.4060593479        9.5629863831       14.5926340419
  O        20.3135754298       10.1563727262       17.3191632375
  O        15.0202199471       18.8974823952        9.3345029867
  O        18.5867748057        9.8430564854       10.8640477075
  O         7.4516783548        2.0309224801       14.4439529044
  O        16.1656514768       17.9234660041       13.9238956321
  O         3.8841947671        6.2615374268        1.3088421772
  O         3.7106320883        2.6392991330       12.5587932834
  O         8.1689558212        1.3786196174        9.6621014209
  O         3.4066682706       14.5972928255       17.8058663062
  O         6.0296364378       20.4148082891       16.3795264664
  O        14.8744434555       16.6090437942        1.0088178100
  O        16.9598068539       15.4705509746        6.9182516372
  O        10.8315835877        2.0243124725        3.6129817964
  O         2.3075210114       16.5796733846        7.1529067978
  O         3.8511220261        9.3866488040        3.9763640039
  O         3.0714777608       14.2712005657        3.1056509626
  O        12.9338156418       14.7948679178        0.6000047711
  O         1.9535164085        6.3107600946       18.5342261974
  O        12.3985246508       17.3891107111        3.3611056697
  O         3.2323116055        9.2447897725        0.0745105787
  O         4.6896735428        5.0106493774       13.1194263335
  O         2.2282635476        1.5465530863        8.9483409694
  O        16.2828413600        4.2915605898       13.7778992244
  O         7.2879863136        1.4992406098        0.2456387873
  O         9.2008586707       16.2716156194       -0.0172606349
  O         4.9670203164       12.3997285224        2.5489199931
  O        16.6190037728       18.1697800391        6.7795230194
  O         5.3231546412       18.7963135393        6.6617575613
  O        16.0563101522        3.9371671655        7.4397260708
  O        12.4329879157       19.9885000205       15.4732275712
  O         7.9067191550       18.5881183572        1.6737143127
  O        19.3731183754       15.0195335017       13.0736507936
  O        16.8304178615        1.3263803976        7.6262301914
  O        18.4517801366        2.3306387594       11.6057593533
  O         1.7108040262        4.4610926120        2.4898799560
  O         2.2863965697       11.8998588221        2.1823247136
  O         1.8762758282        9.8506518141       10.6086140995
  O         2.0719071316        6.6915150592        3.8324894701
  O        11.6341196445        1.5383329550       18.0199984238
  O         5.2065485356        0.7804209634       13.8801554475
  O         8.0454616722        3.9015737524        1.4473174434
  O        11.7164530495       13.5515113528       14.4549932021
  O         7.4599208062       -0.6346196059       11.2173629220
  O        19.1081191509        2.4240895473        9.0447560113
  O         4.5090538752        7.2289926344       18.2104710410
  O         6.8186238864        1.9681387014        2.8179843986
  O        10.9099150752       18.0837451324       14.6182904315
  O         4.3781169328        2.1226529381       18.0320786615
  O        11.7366941877       19.7325271664       12.7661644609
  O         8.9918862617       16.2306941417       14.6116294617
  O         2.9763489565        2.2199577600        3.1882623636
  O         4.2319920371       16.7252420463        0.0577498176
  O        18.9244070503       18.0160169535        3.8118648160
  O         7.3375291161       13.1836117620        1.3116792780
  O        17.8198488823        3.7417798045        2.6062569650
  O        14.8387770091        1.5732776688        0.8914022863
  O         1.2200648081       19.8938407907        4.0480716372
  O        20.0112789772        6.6890875497        1.4925906527
  O         8.6484927168        2.1160724488        4.9728714264
  O         9.5301775748        3.6001392140       13.6425392298
  O        21.2286716487       14.0187947147       11.3735240262
  O        13.2290584626        3.1738359193        3.1145342399
  O        14.8003697435       18.5448479314        2.9580216584
  O         2.6355945432       12.1719187169       18.8789887188
  O        16.8396269573       16.8490424054        2.6232791227
  O        17.6684455375       19.7041616217        9.8882331129
  O        14.9673659073       15.0199226011       18.0876310725
  O         8.6823359048        1.4910616860       12.2092633307
  O        15.1345672427        7.1200378446       16.2826630850
  O        16.9897093565       11.1192271384       16.2619983602
  O        16.4502044620       20.4288994401       18.0555896557
  O         1.4505684739        3.5979585541        7.4798740612
  O        16.7841247481       20.2444750209       12.9260878688
  O        15.9651721071        2.4696175452       15.6387838185
  O        10.8728456924        0.9834401940        6.1813835525
  O        12.3377082096        3.3303409204       16.0074686386
  O        16.2637801052       18.0870077638       11.3954171413
  O        17.4861239623        2.1351622876        0.7466579876
  O         1.4069786965        9.8347851607        4.6314460375
  O        19.8236706985       13.1262760303        0.7002019023
  O         3.0678053278       11.9581122243        4.5740995489
  O         9.3483994966        7.7897399024        1.3827226829
  O        19.7214109055        6.2215018828       11.1556851275
  O        13.0076669910       19.9259976062       10.5004331145
  O        19.3843939943       20.1135725941       17.4270942097
 Na        19.6947680709       13.4585792974        3.0178256270
 Na        11.4714114728        4.2740767641        4.5036304676
 Na        14.9221005672        9.1173635051       17.7032453418
 Na         6.3528116763       16.6049986082       11.0753174194
 Na         4.7797589806        8.3486543139        6.1651895998
 Na        17.2411548444       14.1610185475       13.3984278689
 Na         1.6375119986        0.6457933114       11.2740397531
 Na        18.3504129572       13.5903351846        7.6874992347
 Na        18.0073696816       10.5817580386        8.7653348691
 Na         8.0118376971       17.0035678536        5.0013331950
 Na        10.9964695508        4.6978508930       14.9587926678
 Na         1.7383340005        9.6899462860        8.0694523173
 Na         6.2449649795        6.0566381354        0.3471959437
 Na        10.2263247150       18.2345963596        2.2291334580
 Na        13.1999413500       17.6127931485       16.0680102967
 Na        10.3132067224        0.9890648602        8.6342004897
 Na         8.2759614803        5.1878198291        3.5530218329
 Na        18.4468680221       14.2003129305       16.2218383249
 Na        14.1257007516        3.5175217381       14.3301698970
 Na         5.9357522139       10.5926170730        3.8044569740
 Na        16.3198099713       11.5101149981        1.6280736532
 Na         1.0215689264       12.9853691194        9.6188346014
 Na         6.5411960498       18.6564696577        8.7969734310
 Na        13.9450770125        3.5990212648        0.7724610715
 Na        18.9052269913       15.6806482872       10.4931517091
 Na         4.3547143820       17.0619809406        7.5350762723
 Na        16.0305701088        7.2693284468        4.6436323393
 Na         5.5217501748        6.8273930865       14.4061589056
 Na        12.8499479615        6.6037817749       18.9568067122
 Na        20.0716830995       19.5827182473        0.3299900753
 Na        13.2524067809       19.2914358362       19.2881735483
 Na        11.1397219402       17.5864469529        5.5453080714
 Na         2.6954022839        5.9269906475        8.3297591040
 Na         8.6812823606       10.0945384282        7.8043866826
 Na        10.8075245720       12.9789670421        5.6629399968
 Na         2.2740432617       13.0502401622        6.5302336809
 Na         4.1838479179       14.0513886817       15.4005109402
 Na         7.5410464512       12.3778408368       10.8291475426
 Na        16.8116215679        6.0088538723        0.5467681554
 Na        20.6096556253       18.8581752075        8.2131726802
 Na        20.1463859735        5.1277803567       14.9055589790
 Na         4.7747747860       15.4920822078        2.0023400569
 Na        11.3021787404       15.5150542791       -0.9584494930
 Na         2.5403011890       15.6387341490        9.5658874363
 Na         1.3910467208        1.5233313061       15.0717829782
 Na        15.2363339347        1.5564473367        3.2094635071
 Na        18.2079157612        5.1563937019       12.7025764664
 Na        13.3429056666       12.7644538029       18.7732637230
 Na         4.9572100400        4.9265112282        3.1842065943
 Na        14.8861093507        3.4590111199        5.2717559435
 Na        15.6165103038       14.7595260981        2.2918070056
 Na        16.2220218947        6.7586944322       14.2666054226
 Na        15.0991929530        5.0815705219       17.0325859633
 Na        19.7785768001        7.5445373160        5.4862908858
 Na         4.4600159006        4.5344305018       16.2218511128
 Na        20.0650700680       17.4134313169       13.4469910317
 Na         3.4406133193       11.9466247895       11.7656329195
 Na        17.9162106418        6.9171586709       16.7340352234
 Na         7.2771753772        4.3158068091       13.8131833533
 Na        18.6936347267        3.3271909315       18.2278437589
 Na         4.1279465710        1.4527457007        7.3944441900
 Na         7.4717997795        3.3843571920       16.9041716124
 Na        11.2664526500        3.7060486571       11.6370732530
 Na         5.0711610660        5.3994207322       10.8560491781
 Na         6.9883617409       13.8221406701       17.8443607782
 Na         9.2453768280       17.8764719065       12.3664769394
 Na         5.0059590361       10.6051115170       16.0339573232
 Na        10.1092565019       12.1822253055       17.6793598500
 Na        14.2638904937        6.2164201202        2.2569977439
 Na         8.8189963494        9.8265156498       15.7382855548
 Na         4.6296397495        7.5081430523        2.8817867029
 Na         1.9602472030        8.9554485985        2.0057163724
 Na        18.1795125640       15.2115434289        5.0633844325
 Na         8.8914088147       11.2038435905        2.3113301215
 Na        14.8551621882       12.2671951791       15.1294581404
 Na        15.6332632085        3.4461936171       11.7796879133
 Na         1.9887920138       15.9578315691        4.2464460946
 Na        18.1766707217        3.6774265915        6.4806946783
 Si        15.8863126991       18.9189859672       12.6994081873
 Si         8.5099022115       17.0416752998       18.0918467462
 Si        18.2962063151        1.4142971299       12.9832265013
 Si        10.5096967865        6.7097150005        1.7897152121
 Si        10.7493156964        1.9583314710       -0.1379794017
 Si         3.0361692269        6.2404592497        5.2479408733
 Si        19.8222294769        6.5729033833       -0.1079456726
 Si         7.7097367705        7.9532814671        1.9998142750
 Si         2.7369106698       18.1881467211       16.0602282862
 Si         3.4684921144        6.2541879000       -0.2134109164
 Si        19.1974649478       18.6816904890       16.8409817464
 Si        16.8630590970       19.8273964930        6.2155056346
 Si        17.0012874068       11.3907673456       17.8675654593
 Si        18.3518641860        2.3069658897        2.1904564300
 Si        20.2773259451       15.7732281539        7.2024167803
 Si        19.4471642214       16.5249934608       -0.1598536096
 Si         9.0169997805        4.3938916026        0.1544898316
 Si        19.3581417876        8.2629337102       14.1793970117
 Si         4.1797852194       18.3922449852        0.3426671568
 Si        15.1919321312       15.1178256886       16.4516228108
 Si        15.6965517164       17.7806987241        1.8223575244
 Si        17.7660286098       11.0692011809       14.8146546484
 Si         3.9390915055       16.4989717774       13.6746252673
 Si        20.3622557754        5.8285310148        2.9048052914
 Si        16.0356062903        2.6056081709        8.3153892361
 Si         6.9438236809        2.6486358572        1.3152639153
 Si         1.7327233141        5.4628820402       11.1534107714
 Si        12.5138795570        1.0653077013        6.2666670861
 Si        18.0534969502        1.9613995685       10.0963049112
 Si        19.4857658143        9.7026572480       18.6165284934
 Si         9.9071207333        1.1064999408        4.7636812978
 Si        13.8928143675       15.9125223830       -0.1868431937
 Si         1.8002253045        9.5086436665       16.0793172697
 Si         7.5467420207        0.9631616638       11.1246771417
 Si        16.5513609851       18.5651467081        9.8498041279
 Si        20.0166826391        9.8217548541       11.6445597970
 Si        13.8255460202       20.0152783585        9.0959209418
 Si         2.9758422010       10.2896720081        4.9470569860
 Si         4.1617808523        3.2011803281       -0.0881417272
 Si        16.3895920314       17.9679649216       15.5173278069
 Si         5.9164774900       12.4889000628        1.2296200010
 Si        15.5514883263       20.6787452681       16.6914826854
 Si         4.8343868475        1.4621801806       12.3825498261
 Si         3.0381870808       16.0733612549       18.4138242961
 Si         2.7248922148        1.1281916154        4.3533174223
 Si        12.4986766406        1.9020151552       16.6473437464
 Si        10.1411157121       16.9132793315       15.4711011584
 Si        17.3559832268       16.9526364780        7.3868395446
 Si        18.3358214968       13.6705774877        0.1255997609
 Si         8.9369560505        2.1526173256       13.6336291104
 Si        17.4217427851        5.1679808195        3.5447037935
 Si         6.5770089410       20.1127411328       14.8628439826
 Si        11.2174851291       19.6368101781       14.3080096975
 Si         7.1667812349        2.3930281908        4.4550049442
 Si         3.8118272628       18.1275320489       11.0115382553
 Si         8.2118277584       19.4812078807        0.3870163359
 Si        13.1008810394       20.3869841656       12.1344709731
 Si         5.4336161403       19.3710534231        5.1499519726
 Si         1.0844802313       11.7968640559       14.1156770766
 Si         1.5304677220       14.4746022126       12.8790707143
 Si         3.4024644220       12.7370090297        3.0794446340
 Si        13.2418546520       18.7513952977        3.4952402453
 Si        17.1785091215        3.5072531585       14.8915381305
 Si         4.7259141697       20.0830705196       17.3385218994
 Si         1.3770238612        2.9096787317        8.9670281859
 Si         4.0210017405        8.8435528765       18.1851482360
 Si         6.5082666560       17.9456071510        2.4757599817
 Si         1.9930579195        2.9210866260        2.1138737675
 Si         1.5896798427       11.9435354862        0.7032164727
 Si        16.1916754297        1.0225680745        0.2890869836
 Si        18.5577497850       16.8566046501        2.6523613543
 Si        12.1618858765       14.4090211914       15.7937800755
 Si         3.3397841026        4.0948067860       13.4336494532
 Si         6.7485923749        9.8372745567       -0.2877666775
 Si         1.7174287808        3.4142085196        5.8567869950
 Si        12.1875685700        2.0527260192        2.6837099612
 Si        19.0197660704       19.5585923423        4.1817186284
 Si         3.8683292259       13.0342344031       18.2361080848
 Se         5.0617789226        9.4736603244       13.0255761243
 Se         8.0224096575        7.3337965112        6.9470055915
 Se         5.3793078645        4.1179362166        8.4210640063
 Se         8.2229152990        6.1726302192       11.6554485747
 Se        10.3472737151        3.9428293737        8.7385233340
 Se        14.0821178791        5.2457364529        9.8937082639
 Se         4.5383111353       13.3137678276        9.2106593929
 Se         7.1616010550       11.7701005704        6.0687655394
 Se         5.4773068515        8.7207462139        9.0538574558
 Se         9.1908529337       10.1718764110       12.6297366876
 Se        11.1709086670        9.8870872550        4.7919006914
 Se        11.2928386458        8.3828966921        9.1657536196
 Se        12.5870564172        6.5087907225       13.0646240322
 Se        10.3738773259        7.4381999470       16.7722178145
 Se        13.4912500571        6.1894978301        5.8717156192
 Se        15.8471604348        8.2878858290       11.8071027694
 Se         9.9122373384       15.0566589944        3.9100959866
 Se         7.5015680642       16.1445157918        7.5999432796
 Se         9.1274704096       14.8056181615       11.7571310754
 Se        11.2765194424       10.9225341579        0.8054095969
 Se        10.3834231942       12.3881770550        8.4916560302
 Se        13.1411976896       11.8411210901       11.6072577887
 Se         7.8013057222       12.4035269057       15.7714214837
 Se        15.0693610497        9.3786732370        2.9316525251
 Se        14.4749207259       10.1525323811        7.4814384736
 Se        17.0660375774       13.0300363544       10.4379701765
 Se        12.7339254894       10.3380930650       16.1625972802
 Se        17.7436153621        7.6693991410        7.8173896111
 Se        10.3764719599       17.6070131695        9.1011857084
 Se        13.8699756151       16.0635195713       12.1343593513
 Se        13.6080571396       13.2136774981        4.0240931789
 Se        13.6031412990       14.7216593863        7.9352375698
 Se        17.3091670084       12.5151857025        4.6817163083
 Cd         6.2946626993        5.5172172182        6.3859765076
 Cd         9.2737694026        6.4544132359        9.0356783660
 Cd         3.6089159242        8.4786745720       11.0420558494
 Cd         8.0589217896        6.3818764417       16.6015661140
 Cd        12.9049762902        4.1979202850        7.8772337455
 Cd         7.7751852286        3.4599967062        8.8047698440
 Cd         5.0839646370       11.1970979099        7.6806216366
 Cd         6.4680050237       13.9239315454        7.1684280431
 Cd         6.9430777987        8.6246635123       11.1928320488
 Cd        10.0347100021        9.0281133459       18.8336101605
 Cd         9.1662535711        8.1655465575        4.7147520663
 Cd        12.5786557460        8.5194314021        6.6812848530
 Cd        10.2355394943        7.6446592040       12.6319626906
 Cd        13.5046794933        7.8340385418       15.0934490875
 Cd        15.6553643900        6.1665136021        7.7566141461
 Cd        13.5998523499        7.7140324696       10.6782354216
 Cd         9.7422089725       15.1005629454        8.8996282205
 Cd         9.1006569207       13.7855787501       14.1830963679
 Cd         6.6577395383       16.7391243270       15.3303437049
 Cd         8.4873697321       15.0754274239        1.6890481704
 Cd        12.9800894394       12.0554110717        8.4810918941
 Cd        10.7283046190       10.6554952037       10.6260088526
 Cd        11.9036645705       11.2645662099       13.8464755782
 Cd        12.5118325825        9.2840909319        2.6432532157
 Cd        14.8829225826       10.9613543208        4.9768693753
 Cd        15.2877806594       14.7839557310       10.0357253565
 Cd        16.3981267767       10.9202273819       11.7545511806
 Cd        18.1146676165        7.4872512521       10.4622389620
 Cd        12.1418473374       15.0635919034        2.7357690201
 Cd        12.5216310120       17.1079047939       10.2202757520
 Cd        15.1973309200       14.0128489013        6.0629232455
 Cd        11.7593336580       14.3637443830       12.2685285948
 Cd        19.2309287896       11.0713080537        5.5112948851
