417
 i =     7600, time =    15200.000, E =     -8967.2327698583
  O        14.5238123512        2.0855001197        8.9736294109
  O        15.8966303129        1.2672139935        5.3264775527
  O         9.6653793826       17.2719209304       16.9762506559
  O         6.4092607411       10.9288442300        0.7332583215
  O         2.8122345054        6.4319782419       10.5948092683
  O         1.8679249169        4.7977162370       12.6460796773
  O        16.9700721934        6.2120455861        3.0076934614
  O         5.2554951930       15.6728675209       14.0575003186
  O        15.4491656933       19.1674886599       16.2120773329
  O        13.0376711094        2.7319058455        5.9949674933
  O        11.9391969259        1.9614241547        0.9476107799
  O        13.2591153836       19.4718453893        5.0737732995
  O        11.8858311651        7.3054850002        1.5242063206
  O         5.2952983332       18.7681684359       -1.1251596335
  O         7.0331852962        3.8074962984        4.6097988700
  O         2.9345681219        1.8032918583        6.0306038811
  O        19.4735358338       15.8972278792        3.3090204829
  O        14.7896636499       19.6641557509       12.3001525825
  O        18.4706041054       20.8682486277        3.4223719002
  O         6.7491526441        5.0633341961       15.7975872245
  O         2.0653089413       18.0920377560       10.9405795679
  O        16.7963292090        2.7985667870        9.9535531394
  O        19.7340286322       11.6256777420        7.6252162978
  O         3.3645731179        2.7970351585        0.7788464991
  O         5.6303634153        9.4718717594       17.8257882195
  O        17.7419736241       13.3283699622        1.4103929565
  O         3.3812475170       10.3551876432        6.6098724241
  O        18.5141130079       19.7564761085        5.8437151417
  O         0.8586312026        8.6378842969       12.7231538171
  O        18.3247177174       12.4566146826       18.2045866135
  O        16.0193591564       16.5499117983       16.2496288006
  O         4.6481003723        6.1031803051        4.7532387436
  O        13.0124880759       19.8015865139        7.6875945171
  O         4.0935750846       19.5245676114       11.7882908591
  O         7.0094088367        8.4692783057        0.4437399788
  O         3.9285290511       19.2469596058        4.5721776404
  O         0.5797210317       11.3876958319       12.6777619860
  O         9.9603859571       18.6806747932        4.3838616833
  O        12.6346050807       19.5288539154        2.4274382131
  O        18.5826196331        7.0033412715       14.2597963208
  O        10.2745924851        6.1438621927        3.2905577520
  O         2.8559626996        7.1183235727        6.4970582686
  O         9.8871079297       19.7938917945        0.4415767181
  O         2.9805860666       19.0196844704        0.1468467218
  O         0.8035967281       14.7449234501        6.2888909214
  O        20.0692523768        8.1851927506       -0.6053844103
  O         3.3521511387        9.4124907923       16.7125322465
  O         2.6620030463        4.5849936230        5.4715815394
  O         2.5941146559       15.6361800714       13.5027491689
  O         3.3856016926       19.5951089117       16.5462275270
  O         2.0826058862       10.9103433627       14.9852762093
  O        17.6843882038        4.5189488598       16.2558169218
  O        18.8112820166        5.9936252556       -0.5019526697
  O         5.3359868219       13.2212661695       19.3902143883
  O         3.3037890373       16.9100974852       17.0646576370
  O         8.1358365113        4.9430621911       18.4598164738
  O        17.2297650147       17.2502832811        9.0712117003
  O         6.8401919023        6.7449692381        2.4934003894
  O        19.1937409442       17.3245081992        1.0068552739
  O         8.0404815256       18.4456227911       18.5163771020
  O        16.7127267240       11.5245069600       13.9189365948
  O        19.0292300670       17.1972967325        7.0729106103
  O        20.0611574953        2.8433398392        5.1819359422
  O        13.0156457561        2.3154736981       12.2990827121
  O         5.2330032323       18.7161662737        1.6318301080
  O         7.2390490929       16.1700542245       17.3026812335
  O         3.6908393279       17.7611339157       14.5710140021
  O         8.2045218267       10.0897381685       18.1858102796
  O        13.7434803894       14.9224574120       15.8236860100
  O         6.0071151087        1.8719913892       11.1925313966
  O        11.5639920508       15.9398212945       15.8813847650
  O         9.8437878616        2.9665626087       -0.5331516221
  O        15.7615449136       11.4907952098       18.6871002107
  O        19.4778698117        5.4141304133        3.6864170410
  O        10.3770713992        5.2585570522        0.7330117990
  O        19.9439974750       20.1172872340       13.5054584155
  O        18.6553177289       15.1466387536       18.7557412045
  O         5.9626598266        1.4851539837        5.0836375279
  O        14.0966260924        1.7414348009       17.3970609253
  O        16.4297703434       18.7963898513        0.8319278631
  O         7.8920525790        9.1802816815        3.0086262881
  O         6.5004445674       18.6328367630        4.0550499026
  O        17.1606168149        3.9950018499        4.5724925950
  O        19.1750775005       12.1487388812       15.1546824803
  O        11.7080701328       13.8026567091       17.3102057870
  O         4.7831867861       12.6981196455       16.9283319883
  O        20.3237152867        2.3519397604        1.6281864923
  O        13.4057511970       17.3193654672       -0.8248658320
  O         1.6497869216        4.0690140493       10.1911943199
  O        20.4468599187       10.6049043834        0.4711003701
  O         6.8546884878       18.6075932647       14.2083735299
  O         1.9345604904       13.3053482514       13.9889339349
  O         4.3283416765        4.5536373148       18.2787364597
  O         1.1658076943        8.4174793209       15.2606065350
  O         6.5890377228       16.4817345913        2.6337200961
  O        14.6561956466        5.5544991284       19.5109982411
  O         2.6968046793        3.5190002360       14.7349279122
  O        18.3785682995        2.7877258698       14.3970611095
  O        19.8813938432       15.3365437247        8.9007799859
  O         4.3962731592       17.9901284226        9.5228765349
  O         1.2388355855       18.1128927442       15.6890145647
  O        18.0778145599        9.9619757124       18.7294921899
  O        16.1795936441       13.9396398080       16.0037234904
  O         5.7928153353        3.2093936788        0.7423464072
  O        19.1638592538       17.4977353223       17.8082135159
  O        17.9768660384       18.2937560192       15.7912879562
  O         1.7562412817       16.2579873351       -0.2414318733
  O        10.1455356524        0.7967205303       13.9351113350
  O         4.2756444378       17.0485218476       11.9762224297
  O        18.3789791522        9.6022595264       14.4935646636
  O        20.2548615290       10.2293774362       17.2374779367
  O        15.1999572813       18.9201244336        9.3297792346
  O        18.6972126413        9.9914093017       10.9797085202
  O         7.8925333831        1.7489862504       14.6169876598
  O        15.9251937522       17.9128791593       14.0361441957
  O         4.2506887762        6.1115384206        0.9923423046
  O         3.6731692839        2.6935163744       12.1962181416
  O         7.8480940428        1.1703360296        9.3315075769
  O         3.2896403161       14.5947371141       18.2223670370
  O         6.0701619892       20.3741989487       16.2050707235
  O        15.0951557567       16.5786944561        1.1628207289
  O        16.9330293261       15.6210084339        6.9627616123
  O        10.7939211428        1.7578522606        3.3818186717
  O         2.2017993252       16.7646791065        7.3138156763
  O         4.0018813218        9.5643945173        4.0384441166
  O         3.2066317056       14.4833496893        3.2951533072
  O        13.0830496894       15.0462002292        0.6881644497
  O         2.1360200636        5.9782899638       18.6592037070
  O        12.9480432641       17.1353611345        3.9195507264
  O         3.3705518382        8.9928417933        0.0343487585
  O         4.4644027876        5.0272577473       13.3561095207
  O         2.3198950448        1.5001859450        9.4095566363
  O        16.1946510172        4.2361141681       13.9161587809
  O         7.4710614610        1.4367881308        0.1646488807
  O         9.0986441338       15.9488336673       -0.0288221901
  O         4.9730902742       12.3405545950        2.4805189174
  O        16.5919511891       18.2844543232        6.5920629108
  O         5.5815555928       18.7627699602        6.6325865371
  O        16.2235882448        3.8273506871        7.5438955213
  O        12.3417527848       20.5005433098       15.2770359218
  O         7.9638419274       18.6330062346        1.7583478385
  O        19.4001205351       15.1912400300       13.1593391936
  O        16.8528721130        1.2914364019        7.7538816281
  O        18.7494157904        2.3158167873       11.7604657270
  O         2.2710197303        4.4774046689        2.3267319340
  O         2.3768487335       12.0910450843        2.1522554833
  O         1.9628743119       10.1415197535       10.7701248869
  O         2.3131833216        6.6097161675        3.8471776824
  O        11.4753261846        1.1834662292       17.7818725409
  O         5.3224438730        1.4477552804       13.8208016568
  O         8.2954014770        3.7565096024        1.4083564962
  O        11.6783004035       13.5571036536       14.5245019858
  O         7.4191539913       -0.6590115855       11.1441159380
  O        19.1983113056        2.4981010816        9.0931158600
  O         4.4550763035        7.0508933779       17.7858992545
  O         7.1216054263        1.8250523830        2.7306197556
  O        11.2746013712       18.2781657723       15.1679771767
  O         4.6577985768        2.0960340640       17.9129479204
  O        12.4196814269       19.1553776548       12.9136585757
  O         9.2825708409       16.4845940435       14.4581208238
  O         2.9744414872        2.0103619649        3.2435997504
  O         4.3574185438       16.7251297509        0.0988275940
  O        18.6498365718       18.4887600846        3.5204580904
  O         7.4696775396       13.1261557851        1.5318639915
  O        18.2553149516        3.9204483518        2.1498268067
  O        15.4434330045        1.8750613407        1.0396593938
  O         1.4366084994       19.6231091708        4.3117113592
  O        20.4744938963        6.7276598988        1.5511917758
  O         8.6913388866        1.7189099311        4.9160416577
  O         9.5251888466        3.3965615391       13.5062945414
  O        21.1907377556       14.1469708473       11.4158204435
  O        13.3391121396        2.8395738730        3.0503535486
  O        14.9937866913       18.5266788525        3.0646324030
  O         2.9953413087       12.0570035199       18.8923642983
  O        17.0402483921       16.7990164721        2.5953448302
  O        17.9179010582       19.6902048284       10.1637959072
  O        14.8910174853       15.0910297955       18.1922622437
  O         8.6359372467        1.5087328224       11.8881138108
  O        15.2168468393        7.3458863789       16.3036191074
  O        17.1169242115       10.9475662089       16.4253186448
  O        16.5054659043       20.5422092722       18.1817345685
  O         1.7145690729        3.5721757876        7.6837126720
  O        17.2594744355       20.0146689988       13.2244484886
  O        16.0654076678        2.4036751616       15.7081738072
  O        11.0774495218        1.1129053985        6.0199221411
  O        12.2889113202        3.5002909429       16.4058442696
  O        16.5840488190       17.9371391771       11.4607087089
  O        18.0928867541        1.5752554410        0.8207560047
  O         1.4553220204       10.0263914167        4.6657033131
  O        20.1962893571       13.2793445003        0.4323813165
  O         3.2369083578       12.0519780243        4.6043563665
  O         9.2039055344        7.5201648348        1.3278681290
  O        19.4498245523        6.2308137578       11.1402250566
  O        12.9272141088       19.8210842561       10.3199598703
  O        19.6321530130       20.1040451130       17.0814216635
 Na        20.0258745191       13.6078276159        2.8992473329
 Na        11.9730016684        4.1947932755        4.4440877134
 Na        14.7133887028        9.0136804961       18.3907445100
 Na         6.2462989959       16.6540955881       11.1217952105
 Na         4.8013551877        8.3592347683        6.1945445646
 Na        17.1081791177       13.9619543879       13.4480197091
 Na         1.9227569904        1.0948887584       11.5865922165
 Na        18.3159532947       13.8295433584        7.6900870128
 Na        17.4382024565       10.6899926208        8.6164441105
 Na         8.1058686505       17.0805981159        5.0146051425
 Na        10.8947858013        4.5804061430       15.3501209320
 Na         1.8704367506        9.9056522410        8.3624710178
 Na         6.4001306088        6.1703725403        0.0320048063
 Na        10.5573069690       18.2541271122        2.3174841059
 Na        13.4569797278       17.7128431798       16.3502714760
 Na        10.1760880880        0.8647636365        8.4598094555
 Na         8.2182562246        5.1871996501        3.5758535768
 Na        18.4545809384       14.0538231209       16.4352486578
 Na        14.1419451633        3.2137977397       14.2549973118
 Na         5.9511871898       10.5145306723        3.4561044968
 Na        16.5017140689       11.4990274485        1.4995854124
 Na         0.8612886869       12.9984818124        9.8979477357
 Na         6.5250572968       18.6539537183        8.9171914853
 Na        13.9706915582        3.4952553415        0.6263449294
 Na        18.4275340020       16.0521490726       10.6597498908
 Na         4.4416921142       16.8306893788        7.5269711775
 Na        16.5400840934        7.7054709648        4.6716700665
 Na         5.0571931720        6.7397185102       14.8773463054
 Na        12.5295253733        6.3551597571       18.9913145695
 Na        20.3783540796       19.8282946643        0.0185437432
 Na        13.2738829421       19.4405678637       19.3801939691
 Na        11.5795573989       17.3434455436        5.8545224029
 Na         2.8335492241        5.9726219763        8.4277057308
 Na         8.7562471194        9.6912191574        7.6607276732
 Na        10.5510400322       12.7212779103        5.3936166517
 Na         2.4042561763       13.0721554167        6.6490741928
 Na         4.0529628744       13.9383193437       15.1180551813
 Na         7.5310323373       12.3766266354       10.8427075582
 Na        16.9034430478        6.1943281730        0.6843419477
 Na        20.7686685563       18.7508176346        8.5866359569
 Na        20.2325021010        5.3009977152       14.6611194805
 Na         4.6593654449       15.6692233146        2.0000016254
 Na        11.3367884492       15.8220268134       -0.8285307658
 Na         2.5065334839       15.8483568553       10.0135703575
 Na         1.5896598773        1.7966101627       15.3097258427
 Na        15.5992111982        2.1595477940        3.3978020828
 Na        18.1266831513        5.1032015038       12.4607948519
 Na        13.5075593204       13.1467053157       18.8453635707
 Na         5.5170997018        4.9037987531        2.7744407375
 Na        15.2182175593        3.6292240362        5.5795331192
 Na        16.2411286696       14.6876211951        2.1765624345
 Na        15.9944567818        6.6702567578       14.3954969286
 Na        15.2065887992        5.3186459330       17.2150620402
 Na        20.0689372204        7.9091699934        5.3489215865
 Na         4.6362706558        3.6505700883       15.8308476057
 Na        20.1166825175       17.7295530764       13.3355845995
 Na         3.2304394092       11.9264194433       11.6555071261
 Na        18.0920748616        6.7619244247       16.6513206025
 Na         7.3826550148        4.5668338131       13.5465520907
 Na        18.5095198522        3.5108595606       17.9724178032
 Na         4.0931826481        1.0350214183        7.9130840970
 Na         7.5552289660        3.0798029331       17.2166617055
 Na        10.9333341365        3.4809660273       11.7330121142
 Na         4.8619220718        5.2445992414       11.0787371816
 Na         6.8642196151       13.9977080058       17.7655750952
 Na         8.7402005825       17.9867029793       12.6848456349
 Na         5.4901021785       10.9845093119       15.7619115298
 Na        10.0483687659       12.3347061939       17.5651373005
 Na        14.3340924782        6.0745842467        2.4531253211
 Na         9.1790562066        9.8170945634       15.6253804475
 Na         4.5266944475        7.7354074108        2.7876222324
 Na         2.2810269322        9.3988172458        2.3133798390
 Na        18.2603384859       15.2259884378        5.1403660788
 Na         8.9813337976       11.1861324240        2.0660863863
 Na        14.8543337277       12.2309715952       15.2016770663
 Na        15.3591607943        3.3000307417       11.7102048585
 Na         1.9755867167       16.2793402228        4.7756491917
 Na        18.3642189559        3.4955469174        6.4172268421
 Si        16.1678022149       18.9345155220       12.7562360758
 Si         8.4625973492       16.8853112182       18.1231194966
 Si        18.6499920629        1.6109504469       13.3167508565
 Si        10.4807892398        6.6284560342        1.7871642168
 Si        10.7793111619        1.7136674603       -0.1576998570
 Si         3.0897623977        6.1275253218        5.2551483495
 Si        20.1773233443        6.6469375382       -0.0501290629
 Si         7.6646139716        7.9991861762        1.9358139002
 Si         2.8914941789       18.1293655697       15.9627642810
 Si         3.7623204862        6.0004040417       -0.5013207892
 Si        19.3675615833       18.6392582833       16.6618687363
 Si        16.8764062851       19.9000796647        6.2473880266
 Si        17.1803586053       11.1941825979       18.0389049469
 Si        18.7334795001        2.3846911812        2.1298513655
 Si        20.2191670618       15.9070884612        7.4340554447
 Si        19.5125082263       16.5303909648       -0.3565686509
 Si         9.1802779228        4.4349331619        0.1324887512
 Si        19.3551876401        8.3380728023       14.0958762175
 Si         4.3948351267       18.3797853921        0.2115207829
 Si        15.2349851014       15.0746463922       16.5886439984
 Si        15.8870761706       17.7494754460        1.8677415558
 Si        17.8136937067       11.0456328306       14.9511791105
 Si         3.9562076417       16.5427264877       13.4984892602
 Si        20.7743286278        5.7396159532        2.8501546192
 Si        16.0844674097        2.5188986707        8.4548606933
 Si         7.1363514600        2.5740291900        1.2777111328
 Si         1.5822263348        5.4968102482       11.1593263369
 Si        12.6640605084        1.2310275199        6.1862400746
 Si        18.2319869936        1.9277974607       10.1907330347
 Si        19.7259076276        9.7520757234       18.6857697073
 Si        10.0809547274        0.8911378874        4.6792279984
 Si        14.0783789328       16.0922460787       -0.0325205655
 Si         1.8875041988        9.6712062810       16.1067210698
 Si         7.4747617830        0.8956358854       10.8630417202
 Si        16.6816653125       18.5294425703        9.9253324112
 Si        20.0856234042        9.9587217990       11.7146339551
 Si        13.9706589622       19.9628842066        9.0446749004
 Si         3.0039990331       10.4267884274        4.9971650566
 Si         4.4668461770        3.1450131091       -0.2517483407
 Si        16.4532230721       17.9686607129       15.5565706069
 Si         6.1103502418       12.4352163701        1.2175685493
 Si        15.5764113227       20.6988094944       16.8537333155
 Si         4.8219045928        1.5041420369       12.2393708550
 Si         3.1656954578       16.1665926100       18.4672233850
 Si         2.7680022695        1.0396724574        4.5587091851
 Si        12.4939309331        1.9792535866       16.6958515943
 Si        10.3777257652       16.9575817525       15.5406847656
 Si        17.4345130768       17.0870493639        7.3792199558
 Si        18.5922946495       13.5520731844        0.1091143800
 Si         9.0748585765        1.8639185566       13.4438534252
 Si        17.8278351703        4.9002676041        3.4623322188
 Si         6.5993549992       20.1148959654       14.6632245843
 Si        11.5813932019       19.5982590461       14.2738304493
 Si         7.1774853830        2.2694643619        4.3348231064
 Si         3.6278682296       18.1726859759       10.9116559641
 Si         8.2693391888       19.4191156820        0.3842267454
 Si        13.2542094344       20.1650483528       11.9650263170
 Si         5.4596338894       19.3041226054        5.1255254851
 Si         1.0765093672       11.8730304571       14.1599340671
 Si         1.4407956733       14.5528137976       12.9061798212
 Si         3.5107712192       12.8948613605        3.1661330402
 Si        13.4240891868       18.6429751962        3.6780344334
 Si        17.0219977660        3.6439485393       15.1026610370
 Si         4.8568034931       19.9803958205       17.2711166366
 Si         1.5137885864        2.8297136824        9.1179525056
 Si         4.1684964202        8.7256512727       18.1195135345
 Si         6.5219555377       18.0966446103        2.4846805473
 Si         2.3733375793        2.9155450535        2.0919776146
 Si         1.8111460011       12.0939641178        0.5716872405
 Si        16.5580207947        1.0268467481        0.4106964940
 Si        18.7025840067       17.0832798874        2.6307510252
 Si        12.1403072300       14.3791217647       15.8534445879
 Si         3.2178867907        3.9695908727       13.3082390043
 Si         6.8094919403        9.7937342896       -0.4594073086
 Si         1.9360942607        3.1976523717        6.0623516850
 Si        12.2586001450        1.7376955684        2.6068897718
 Si        19.1904468320       19.7730815880        4.4111007855
 Si         4.0879981458       13.1229860350       18.2879267755
 Se         5.0618079041        9.1918807606       13.0911654685
 Se         8.0321796631        6.8755709150        6.5974373765
 Se         5.1737730347        3.7300938691        8.3471039796
 Se         8.2871467302        6.3445688342       11.3296880781
 Se        10.4162362831        3.7887643797        8.6916253015
 Se        14.1099717543        5.2711621608        9.8600013136
 Se         4.6673189054       13.1290356966        9.2374994402
 Se         7.2364678297       11.4375274110        6.0787350717
 Se         5.6353705218        8.4927005623        9.0608542864
 Se         9.4783500727       10.4043959381       12.4812499958
 Se        11.1444055597        9.7676169283        4.8765189063
 Se        11.4232446192        8.4023101676        9.2670549613
 Se        12.5532342923        6.5749072886       13.4233922778
 Se        10.5229773559        7.5108990199       16.6923754060
 Se        13.5663288517        6.2772971111        5.8712051838
 Se        15.8697014887        8.2380281793       11.7417375494
 Se         9.9994742986       14.9814801694        3.7788571024
 Se         7.1993867115       16.0283007379        7.6077487421
 Se         9.1965601527       14.5541497475       11.4696064842
 Se        11.6864081148       10.9548411782        0.7034024467
 Se        10.3168686526       12.2255335345        8.2467158587
 Se        13.1007668846       12.0478747940       11.4767556980
 Se         8.0740824423       12.4235878539       15.7463403954
 Se        15.2021877362        9.2749421011        2.6997906659
 Se        14.7344937869       10.2886624105        7.3799311309
 Se        17.0584808063       13.1567683713       10.6047831713
 Se        12.6573136418       10.6203263118       16.1214285729
 Se        17.9061499337        7.4636817255        7.5163938921
 Se        10.6698720138       17.3732621235        8.4724659493
 Se        13.8176016590       16.0320156725       11.9889985257
 Se        13.7622386164       13.2298888216        4.3837214306
 Se        13.5048476381       14.8702455712        7.9373302780
 Se        17.3549822515       12.5423559623        4.6510369564
 Cd         5.9862706045        5.0700289922        6.3340619772
 Cd         9.5283896518        6.3442163546        8.8111699329
 Cd         3.8083574372        8.5292460633       10.8681997373
 Cd         8.1737800557        6.3001249016       16.5590722482
 Cd        12.8084054006        4.4856074413        7.6416846598
 Cd         7.6826504358        3.3935929730        8.6339193091
 Cd         5.3090210976       10.8117789893        7.9950076494
 Cd         6.5722888958       13.5622305393        7.2418066332
 Cd         7.0223784730        8.5393444252       11.5243929018
 Cd        10.2451488031        9.1086478138       18.7585094179
 Cd         9.4889420962        7.8259132614        4.7323464949
 Cd        12.5506025274        8.6133608939        6.6944323830
 Cd        10.3978318130        7.8267594882       12.7790304586
 Cd        13.5056192987        8.1500949254       15.3451668792
 Cd        15.7833311798        6.1666104894        8.0970869308
 Cd        13.5888998645        7.5685396793       10.6231255777
 Cd         9.4953368118       14.9606002293        8.7149302356
 Cd         9.0783447092       14.1556659756       14.1465060596
 Cd         6.6859645108       16.6798589386       15.2560912913
 Cd         8.3164014958       15.1417367934        1.8548966176
 Cd        13.1326196504       12.1868885403        8.1398322874
 Cd        10.9789766522       10.8429557318       10.3171837724
 Cd        11.8359386000       11.4415401393       13.7579275785
 Cd        12.5216284370        9.3452277975        2.4160470299
 Cd        15.1071798789       10.8777384601        4.7485875499
 Cd        14.8509255467       14.3645346706       10.0856015799
 Cd        16.5961845834       10.8003592035       11.9061231590
 Cd        18.1098172968        7.7637313082       10.2078695758
 Cd        12.4717661595       15.0381611236        2.8170167907
 Cd        12.5889938775       17.0589574289       10.0825351780
 Cd        15.2792195629       14.6396815912        5.9185705035
 Cd        11.7179123416       14.3885630570       12.1761549168
 Cd        19.2140029152       11.2155229540        5.6736052470
