417
 i =     5400, time =    10800.000, E =     -8967.2328109449
  O        14.1154929535        2.3456572820        8.7502071264
  O        15.6268409140        1.0163384190        5.1878782399
  O         9.0686088413       17.6447247534       16.9267230821
  O         5.9246712035       11.0496336349        0.8383042411
  O         2.3022410313        6.5187323601       10.2638771263
  O         1.8903547528        5.0955276865       12.5371069084
  O        16.2711943038        6.1348411036        2.4204641432
  O         4.6925722275       15.8451227715       14.3772385146
  O        15.1045115722       19.0054180952       16.3156801794
  O        12.6439298132        2.7635849637        5.9932589111
  O        11.6180139476        2.2761997626        1.0404439968
  O        12.8527269087       19.5040966119        5.0682206705
  O        11.6275326170        7.3325373549        1.6474475196
  O         4.8387175627       19.2526145957       -0.7929636739
  O         6.4749578532        4.0551901343        4.7941176903
  O         2.7075363031        2.3655757257        5.7158397438
  O        19.1762290961       15.9486426223        3.2843538945
  O        14.1809948575       19.8541694330       12.6820512169
  O        18.1210356684       21.1824778399        3.4717731593
  O         6.4178668424        5.2494720445       15.7857881933
  O         1.6095130009       18.1179619612       11.1215752474
  O        16.4987389395        3.1597020887        9.7639552764
  O        19.1621087067       11.5919053683        7.8308607093
  O         2.8403430841        2.9720869441        0.6424632479
  O         5.4181947494        9.6226365180       17.8947764920
  O        16.9068606870       13.5418833887        1.0636988311
  O         3.0028134706       10.6290237723        6.6356315169
  O        18.1868375625       20.0592347306        5.8610120695
  O         0.3390509844        8.7324717712       12.7216195473
  O        17.7090813523       12.9489224060       17.9737049865
  O        15.9986416219       16.5228692503       16.1571547846
  O         4.2266900099        6.5255983661        4.7278640328
  O        12.6623796476       19.8412370183        7.6950166680
  O         3.7632536151       19.7291596850       11.7236408663
  O         6.8628664434        8.6567103232        0.4500591068
  O         3.6991634239       19.6831808215        4.4090439157
  O         1.0350604982       11.3458046487       12.8461332284
  O         9.3893283694       19.0177574700        4.2903190247
  O        12.3565485774       19.7916942957        2.5170265118
  O        18.4052538816        7.0139152525       14.5184591369
  O         9.7991684130        6.1149219718        3.2751474132
  O         2.2389925741        7.3516467337        6.4930388213
  O         9.5767756031       20.0333815720        0.5864682317
  O         2.4075819631       19.2330411620        0.3215048845
  O         0.2072792774       14.8740493636        6.3926417405
  O        19.3107852229        8.3815167317       -0.4857086036
  O         3.0550309043        9.6082831842       16.9435756422
  O         2.5200491710        4.8770115529        5.5649887759
  O         2.0931659007       15.9226818087       13.6900224526
  O         3.1824408980       19.7480881003       16.6286046671
  O         2.0414235436       11.0366335643       15.2642108421
  O        17.0926387116        4.4389127213       16.3098184150
  O        18.3903087492        5.9771468684       -0.7297441799
  O         4.5985990275       13.4730088031       19.5954078325
  O         2.6884207107       17.1231575913       16.9987399620
  O         7.8840359266        4.9642245589       18.4690128117
  O        16.7487107542       17.4013096489        9.2099457833
  O         6.6935850417        6.8486152196        2.3405703093
  O        18.8035778592       17.5729732224        1.1585458998
  O         7.5815330539       18.7614714002       18.6002311537
  O        16.5532788881       11.8142152736       13.8453149625
  O        18.7099519357       17.1394412703        7.4815044438
  O        19.5111722059        3.4055105703        5.2907451699
  O        12.8843970912        2.7585139452       12.0708261485
  O         4.7622869416       18.6065436733        1.7201241170
  O         6.7274460219       16.4318587653       17.3848801606
  O         3.2281713961       18.0337872803       14.6078838528
  O         7.8980571648       10.6544120602       18.4138315560
  O        13.3848923228       15.5879313641       15.7695766322
  O         5.7432124036        2.0722068283       11.4767395292
  O        10.8789533882       16.0908674640       15.8661007046
  O         9.5789231730        3.1411089345       -0.4772053096
  O        15.2351137318       11.5330650467       18.5430968909
  O        18.6797775996        5.9190497958        3.5112234609
  O        10.1596935799        5.3728638664        0.7373523966
  O        19.4396426875       20.3510827660       13.3445773227
  O        18.1207944053       15.4925229456       18.8639307873
  O         5.8526046903        1.5925267025        5.5111200520
  O        13.6034829162        1.5169411389       17.3650439770
  O        16.0448241659       18.9372211075        0.9694623725
  O         7.6903931575        9.2607464716        3.1345585427
  O         6.1350161313       18.6579588497        4.1302728183
  O        16.5469698460        4.5251109166        4.5159571459
  O        18.9972066176       11.8343495226       15.1821546068
  O        11.7139529012       13.9643148105       17.2194944382
  O         4.2073799456       12.7819875847       16.9941572077
  O        19.8096453913        2.4281921726        1.5194089454
  O        12.7896228277       17.4407457914       -0.4720309902
  O         1.5074970122        4.0349590298       10.2097612359
  O        19.8352988706       10.8481700546        0.4011797312
  O         6.9080213905       18.8560470602       14.6116448522
  O         1.4990962026       13.4574844787       14.4019818855
  O         3.9741507068        4.8576255570       18.4636557280
  O         1.1486929606        8.5235933460       15.3239380053
  O         6.3688222977       16.5965750911        2.5337659286
  O        14.1762903658        5.7626281999       19.1159035159
  O         2.3720459289        4.1290812954       14.8485303224
  O        17.9822659354        2.9851779650       14.2514593587
  O        19.6429585275       15.0485016734        9.1033953454
  O         4.0107313983       18.0276332192        9.7219754752
  O         0.9215456875       18.5847136890       15.8084686528
  O        17.5531008670       10.4412277416       18.7624086747
  O        15.5264108934       13.9920458828       15.9104153103
  O         5.3134180902        3.4203214634        0.8970045442
  O        18.7643803113       17.9589233009       17.9690610584
  O        17.7081881854       18.6006654257       15.7192612998
  O         1.2099403861       16.2493455037       -0.3632533573
  O         9.7268541000        1.2853750453       14.2220700587
  O         3.9246508015       17.0944169705       12.1644817104
  O        18.0951212972        9.5747494510       14.4925293665
  O        19.8326368690       10.3756763052       17.1647810273
  O        14.9545302657       19.2758840548        9.2988386293
  O        18.4062072979       10.4695753793       11.0432357191
  O         7.2820135412        2.2360814668       14.6543577205
  O        15.8258682026       18.0910712526       13.9108364612
  O         3.7060809405        6.3070329667        1.1318119035
  O         3.4030963569        2.8295220107       12.6378638108
  O         7.4322422947        1.6023429818        9.5306045372
  O         3.1915937823       14.8372660211       17.9984741589
  O         5.7114240687       20.5554565614       16.4344128948
  O        14.7948998723       16.5610961807        1.2930199462
  O        16.4203888607       15.7226049918        7.0441946333
  O        10.6167586159        2.0141128320        3.6273129309
  O         1.8078683854       16.6037246022        7.5320365230
  O         3.4139620622        9.5496875880        4.1629751339
  O         2.7938408289       14.3403309678        3.0809292489
  O        12.8260890084       14.9547299497        0.7327428065
  O         1.6492995722        6.2426498175       18.4868982048
  O        12.1208461765       17.3419346430        3.7312878275
  O         3.1600916682        9.3007919053        0.1925216252
  O         4.4527502881        5.2647334818       13.2428528494
  O         1.8779016537        1.5503669813        9.2061818732
  O        15.6162119575        4.1898241349       13.9713300894
  O         7.0436051739        1.6934671602        0.3272401657
  O         8.8301015817       16.4648205066       -0.0347917407
  O         4.4575421590       12.3553781797        2.5562177485
  O        16.3811879221       18.4511790523        6.7680477431
  O         5.0392735883       18.6513334387        6.6380160804
  O        15.4708342454        4.0116965505        7.2778669035
  O        11.9956179714       19.9000638838       15.5825239392
  O         7.5326122967       18.9082725980        1.8804233609
  O        18.9955460136       15.1768174264       13.2018108452
  O        16.5418710542        1.5690293825        7.6989006081
  O        18.2441224477        2.5710111931       11.5886471435
  O         1.6007382294        4.5126419418        2.4162353175
  O         1.8834941479       12.1026253540        2.1265647521
  O         1.5930305447       10.0812404556       10.7754458346
  O         1.6883332472        6.7823192792        3.8681692133
  O        11.1625223870        1.2390172239       17.9704391864
  O         4.9679268651        1.2684021610       13.9304759820
  O         7.9029971921        4.0052877511        1.5287384265
  O        11.6302580378       13.9543733388       14.4136707186
  O         6.5804733052       -0.4600662651       11.1578313419
  O        18.9192264211        2.7782766253        8.9314303156
  O         4.1363687599        7.3720082546       18.0970815507
  O         6.4767232123        2.2741812972        2.9417375194
  O        10.2405663620       18.2726276110       14.5617538517
  O         4.2440709981        2.4314791085       17.9359628346
  O        11.7272904834       19.7273247241       12.9195169954
  O         8.5351607804       16.3117712583       14.7036933660
  O         2.7690914739        2.3408209492        3.1024018543
  O         3.7875770259       16.9329912703        0.1078387280
  O        18.4984732220       18.6412521379        3.6325193392
  O         6.8532093083       13.3583789971        1.6538901198
  O        17.5780691230        3.8945112197        2.0156396772
  O        14.9341521972        2.0565617845        0.8941732792
  O         1.1029818173       20.0581773575        4.4789656536
  O        19.8858175778        6.7901076623        1.4655374444
  O         8.3503025132        2.0168972111        4.9475685686
  O         9.1559695888        3.7080959108       13.4349778485
  O        21.1131393127       14.0281696875       11.7900881224
  O        13.0091205205        3.0457382711        3.1531875737
  O        14.4967244635       18.6800016385        3.0188714554
  O         2.2456881067       12.4008880403       18.7763444791
  O        16.7594823532       17.0519816215        2.7358984956
  O        17.5905398357       19.9343854641        9.8279368988
  O        14.6079655058       15.4288911905       18.1967827259
  O         8.2131815567        1.4404268496       12.1122143728
  O        15.0151168711        7.4681706116       16.0464033400
  O        16.6404339789       11.3151438071       16.2830878423
  O        16.1410483929       20.5420802816       18.0787094516
  O         1.5575652738        3.7017751343        7.6217449491
  O        16.6550265740       20.4575730513       13.0928597371
  O        15.5709823012        2.3293970962       15.7893686287
  O        10.6383958564        1.0367497646        6.0395992471
  O        11.9795402710        3.2108985299       16.1917228680
  O        16.2022943027       18.4718423032       11.4781384472
  O        17.6182383310        1.5041104256        0.8556423717
  O         0.9313708821       10.1603114962        4.7165038137
  O        19.5004207179       13.4609916811        0.5072456619
  O         2.7872232783       12.1736653207        4.6811350287
  O         9.1124178719        7.8199394505        1.3469220767
  O        19.1114541841        5.9292488201       11.2490772372
  O        12.6660258448       20.0754064664       10.3848722086
  O        19.1370350742       20.4821939864       17.3431402026
 Na        19.4510613644       13.7960328331        3.0380324548
 Na        11.5668774506        4.6356524095        4.0876266356
 Na        15.0963415438        9.3715708587       17.6623151842
 Na         5.8642971771       16.6805651779       10.6127479980
 Na         4.3734312985        8.6594789926        6.1494569698
 Na        16.8135719198       14.1346285583       13.0751680774
 Na         1.4774437678        1.4398824150       11.6686519450
 Na        17.8559844047       13.7765060205        7.6745709132
 Na        17.3722405674       10.4950879198        8.6784057318
 Na         7.8288049866       17.3829093482        5.0534298198
 Na        10.6546895860        4.6275247321       14.9573708649
 Na         1.3505082253        9.8963080354        8.1818500713
 Na         6.0682027465        6.3926231114        0.1303385520
 Na        10.0249883277       18.1868743656        2.2083304750
 Na        12.7916368426       17.8923027119       16.6414696485
 Na         9.5264316217        1.1806867292        8.7429807230
 Na         7.7410205885        5.3075236637        3.5700828664
 Na        17.9230868482       14.3110409336       16.2498621821
 Na        13.4183045512        3.3069667173       14.2129373359
 Na         5.5127498582       10.3821984766        3.6314102798
 Na        16.2028609136       11.5657689914        1.5778547470
 Na        -0.2108664112       12.8088246218       10.1215070174
 Na         6.2319431974       19.0275656954        8.6137041578
 Na        13.4568302851        3.8251642229        0.7352213519
 Na        18.6590416760       16.1503094661       10.7935119884
 Na         4.0237940883       17.0996344506        7.7081367228
 Na        15.8981382609        7.2175074597        4.3926235516
 Na         4.8475731025        7.0093056017       14.7552461372
 Na        11.8471824537        6.3218913988       18.8526098877
 Na        19.7642624166       19.8766387565        0.0526930709
 Na        13.1325474288       19.5390238092       19.6508480553
 Na        10.7528911372       17.7359424471        5.6462623048
 Na         2.3645858811        5.9841993430        8.2895967369
 Na         8.1134088077       10.2215079772        7.6669847479
 Na         9.9400486028       12.7444237370        5.4334354918
 Na         1.6859460921       12.9139166770        7.0829599859
 Na         3.2960415147       14.5441783608       15.5296525045
 Na         7.5219167124       12.3840227662       10.8334828992
 Na        16.4272370896        5.4478441832        0.2132798478
 Na        20.4630843002       18.7811522343        8.8208866861
 Na        20.7971070465        5.8486941725       15.9813288626
 Na         4.4202419354       15.5997406547        2.0491072280
 Na        10.8144467358       15.6431891848       -0.7911955425
 Na         2.3808909658       15.4006682947       10.1667135201
 Na         1.0495697922        2.0894724620       15.2007422586
 Na        14.9744367035        1.6097782795        3.1375337776
 Na        18.7176764471        5.0438640543       13.3322729296
 Na        13.2162614537       12.8415734600       18.4801219254
 Na         4.4331144657        4.8929024632        2.8633810525
 Na        14.6780287879        3.3135906110        5.1705500886
 Na        15.3322081333       14.5020921558        2.2712325827
 Na        16.0605053616        6.9772608292       14.1003692280
 Na        14.4397223856        5.4471329631       17.0506095737
 Na        19.6315949044        7.9998948554        5.2633454380
 Na         4.0914423882        4.0080246708       16.1612657964
 Na        19.9724761124       17.9198587310       13.5426200843
 Na         3.1440793335       12.1424404305       11.5826307112
 Na        17.4774842129        6.6544173591       16.6666706507
 Na         6.9851243772        4.6419857255       13.5849819894
 Na        17.9966636995        3.2939003859       17.9096624636
 Na         3.4151492572        1.4296721535        7.6801439115
 Na         7.3563338743        3.3122288058       17.0373341320
 Na        10.9622517841        4.0991004012       11.4441849400
 Na         4.7723569366        5.4379993544       10.8594663901
 Na         6.2683328350       14.2117404367       17.8917196903
 Na         8.1112272758       17.8833165875       12.7088979245
 Na         4.6548733388       10.9754161598       15.8179998901
 Na         9.7270604145       12.6399810442       17.6079749320
 Na        14.1424242530        6.9544649897        1.6774724323
 Na         8.6888637824       10.0084185537       15.7937869368
 Na         4.3933348309        7.9095619402        2.7103259672
 Na         1.6692391785        9.4404015814        2.2933229185
 Na        17.7999289216       15.6125260249        5.2368548561
 Na         8.5353720381       11.3959622971        2.2724085159
 Na        14.6699867790       12.2567163679       15.2753289023
 Na        15.0315565518        3.7844712576       11.6546818783
 Na         1.8429653505       15.7781705841        4.8652853543
 Na        17.7964453154        4.1636454871        6.3972791999
 Si        15.6633031526       19.2587103666       12.8121890343
 Si         8.0333764707       17.1758749763       18.1073764887
 Si        18.0943452948        1.7794856923       13.0970573000
 Si        10.1827730577        6.6466432630        1.8613186449
 Si        10.5155818913        1.8408234140       -0.0539636007
 Si         2.7065422379        6.4483963945        5.2292614947
 Si        19.6015168548        6.8260600809       -0.1067476091
 Si         7.5820792541        8.1542043906        1.9385425284
 Si         2.5389027461       18.4063657462       16.0192062675
 Si         3.2423958166        6.2991479043       -0.3239774109
 Si        18.9582257217       19.0242351459       16.7505383831
 Si        16.6247012978       20.0127303534        6.2760989114
 Si        16.6805112290       11.5864117716       17.9215251725
 Si        18.2765314933        2.3923757591        2.0170792902
 Si        19.8389796352       15.8370199712        7.6867588287
 Si        19.0343205699       16.8255595996       -0.2711855491
 Si         8.9171113043        4.4462363754        0.2083568413
 Si        19.1854102420        8.3507625535       14.2451794097
 Si         3.8249129282       18.6087669220        0.3630517699
 Si        14.8786853260       15.3081562252       16.4746451847
 Si        15.5308033521       17.8594934700        2.0466132264
 Si        17.5249068872       11.0833429054       14.8756613840
 Si         3.5743619258       16.6870565397       13.6695324445
 Si        20.1428608556        5.9604138776        2.8327905213
 Si        15.6643575431        2.8697426664        8.3024582849
 Si         6.7309567767        2.8386307718        1.4514688419
 Si         1.2784772325        5.4731964637       11.0989368926
 Si        12.2805952679        1.2109585277        6.1819691574
 Si        17.8246957168        2.2270798535       10.0154230965
 Si        19.1356419400        9.9603767784       18.5791526321
 Si         9.6838820747        1.1171150408        4.7133056966
 Si        13.7250009967       16.1509744804        0.0091090525
 Si         1.6395629372        9.7937439198       16.2188003992
 Si         7.0361801828        1.0631454071       10.9923245637
 Si        16.3908279165       18.7897845387        9.9265993844
 Si        19.7784034582       10.1895390686       11.8127660414
 Si        13.6057789010       20.2002212538        8.9520469256
 Si         2.5296205292       10.5151176751        5.0535683736
 Si         4.1035081005        3.4278969191       -0.2276749491
 Si        16.2105640585       18.0680459169       15.5373028029
 Si         5.5226902576       12.6145315542        1.2959155841
 Si        15.1427209394       20.5488610417       16.8444029121
 Si         4.4763862430        1.6041595687       12.4113969868
 Si         2.7237285154       16.3106106303       18.4431492587
 Si         2.5720581401        1.4018466918        4.4133293802
 Si        12.1784977474        1.7214493316       16.6921970635
 Si         9.6495782062       17.0623018880       15.5068033055
 Si        16.9771637811       17.1390659021        7.5328741230
 Si        17.9934940994       13.8419864956       -0.0145596203
 Si         8.5961311042        2.1857758438       13.5087695180
 Si        17.1795618009        5.0220888528        3.1669515661
 Si         6.2553640201       20.2503146195       14.8598585399
 Si        10.9087070457       19.6515250640       14.3135971210
 Si         6.8020391427        2.5269377527        4.5996194320
 Si         3.2052894632       18.2875966845       11.0945043938
 Si         7.9392930165       19.6259525398        0.4755859715
 Si        12.8769197105       20.5285431622       11.9726609947
 Si         5.1338455594       19.4703924513        5.2117494165
 Si         1.0183495427       11.9249831018       14.3877798616
 Si         1.1447810647       14.6291294459       13.1280791582
 Si         2.9633245537       12.7680313093        3.1952852102
 Si        12.9277623612       18.7119690429        3.6205730488
 Si        16.5864747123        3.4875695622       15.0609276894
 Si         4.4910971788       20.2458917634       17.4358424876
 Si         1.1136704202        2.9450250152        9.0109427782
 Si         3.8767489951        8.9942865348       18.2129038709
 Si         6.1199194395       18.1904956095        2.5347391527
 Si         1.9171245831        2.9957072727        1.9424475598
 Si         1.2214735388       12.2032570906        0.5988570942
 Si        16.0817481332        1.1037044167        0.3193538969
 Si        18.3974551031       17.2518261955        2.7636882234
 Si        11.9135717193       14.7472828577       15.8361946128
 Si         3.1012517133        4.3738326047       13.4233463714
 Si         6.5172621931       10.0795899250       -0.3448832701
 Si         1.5620891130        3.6043318832        5.9550352071
 Si        11.9115101327        1.9805915671        2.7339760331
 Si        18.8364382263       20.0472002875        4.3951060458
 Si         3.5163390223       13.2752155349       18.3582489576
 Se         4.4976509169        9.5926264033       13.0111446749
 Se         7.6574682955        7.3191619717        6.8308633086
 Se         4.7011967714        4.0894940721        8.3674298814
 Se         7.7621080002        6.6149692985       11.3490083258
 Se         9.9674905410        4.1630880546        8.7076270129
 Se        13.8162281883        5.3577714474        9.7965517323
 Se         4.4864126281       13.2892428083        9.0906944346
 Se         6.7921153625       11.6211200025        5.7667356701
 Se         5.0140848036        8.7749661953        9.2643158710
 Se         8.8762105577       10.2241723161       12.5027468408
 Se        10.7721066535        9.9642961851        4.8329562704
 Se        11.0539620998        8.6243662781        9.3464504531
 Se        12.3497978756        6.6157819090       13.1450373043
 Se        10.0917210701        7.6679541334       16.7167800943
 Se        13.0631298458        6.3017551556        5.8276693622
 Se        15.6924659352        8.3593673116       11.4056120784
 Se         9.5391558166       15.0201383828        3.6488468376
 Se         6.9400694957       16.0970552943        7.7241644952
 Se         9.1378782658       15.0352514944       11.6965896418
 Se        11.0997886385       11.1209231538        0.4648306816
 Se         9.8494185604       12.5636310550        8.4988655755
 Se        12.7663169443       12.1206635806       11.5757353896
 Se         7.3676992288       12.6719860611       15.5975148313
 Se        14.7986652979        9.5016541912        2.8065037468
 Se        14.0027459109       10.4790199581        7.3671194303
 Se        16.4044558040       13.3529073162       10.4425102185
 Se        12.3144874914       10.5788934307       15.8689409013
 Se        17.6343791587        7.3635871908        7.4997926412
 Se         9.7949596782       17.7542114896        8.6025056913
 Se        13.4355203014       16.6582161803       11.8177059044
 Se        13.0310200802       13.6555099068        4.7351807669
 Se        12.6960462589       15.1298186267        8.1902803761
 Se        16.9439906763       12.7061196086        4.6977149342
 Cd         5.6342848155        5.5124624877        6.2597892179
 Cd         9.2390408056        6.6502959239        8.8412935696
 Cd         3.0746287467        8.3609638311       11.1468295055
 Cd         7.9185989755        6.4430755768       16.6378512957
 Cd        12.4729495294        4.3762511970        7.5663450361
 Cd         7.1357461029        3.5943776008        8.6840987460
 Cd         4.7145376633       11.0823921987        7.8707965351
 Cd         6.0968412852       13.8199974777        6.9768957248
 Cd         6.5461971824        8.8431428188       11.4036332446
 Cd         9.7090684250        9.4036896147       18.6478681456
 Cd         9.0235278843        8.0111643017        4.7420835574
 Cd        12.2146088664        8.6759700197        6.5779788262
 Cd        10.0301911933        7.6675102642       12.4294820635
 Cd        13.2778998009        8.2647868360       15.2690185628
 Cd        15.0755739610        6.2779874353        7.6933276075
 Cd        13.2173380653        7.8058453011       10.5112292417
 Cd         9.0140369400       15.2485479202        9.0282494749
 Cd         8.4483615945       14.1766120236       13.9780168453
 Cd         6.3965398747       16.8655563946       15.3424881084
 Cd         7.9889035347       15.2771778345        1.6527498483
 Cd        12.7110081708       12.5544630055        8.0238063155
 Cd        10.6070657819       10.9164112303       10.5245378546
 Cd        11.4249382350       11.6686514185       13.7746449676
 Cd        11.9692706374        9.5687117439        2.4313571622
 Cd        14.4466288140       11.3225098044        4.8239903504
 Cd        14.2731176329       14.7201290304       10.1422277643
 Cd        16.3931952411       10.8950304295       11.8571523939
 Cd        17.7505688672        7.1409725099       10.0403513522
 Cd        11.9326463237       15.2445266928        2.8449448750
 Cd        11.8470461809       17.3844995324        9.9731292236
 Cd        14.5840294827       15.2002367905        6.1686561779
 Cd        11.7435260877       14.6050967716       12.2416975362
 Cd        18.7406788436       11.3422065001        5.7180490358
