417
 i =     7900, time =    15800.000, E =     -8967.2299081006
  O        14.5764737969        2.0732523543        8.6026433162
  O        15.8073659716        1.0377140013        5.2430548035
  O         9.7825864226       17.1844633452       16.9566300665
  O         6.5276406048       11.0739300894        0.5490139845
  O         2.5391623508        6.4710021505       10.5812317815
  O         1.5825591549        4.5367721333       12.4682100126
  O        16.4373913874        6.0893858786        2.5984404636
  O         5.0183493447       15.6989104713       14.3032357148
  O        15.4157793226       19.1294047366       16.1018273874
  O        12.8650567250        2.7997316048        6.2865247746
  O        11.7096746979        2.3149316921        0.9375203466
  O        12.9451370186       19.5632540384        5.0008027568
  O        12.0021228972        7.2868846239        1.5716021706
  O         4.8818854036       19.2616209624       -0.8843983760
  O         6.5160127155        4.0243348711        4.4667642331
  O         2.8463647156        1.9499888197        5.7121576016
  O        19.1497140580       15.7091067995        2.9392142572
  O        14.5824172717       19.9335489299       12.7431414290
  O        18.4006414408       20.7021372992        3.0862820695
  O         6.4852502650        5.1555706828       15.8801239419
  O         1.9518739715       17.9866736473       10.8210118154
  O        16.5997850073        2.8147419033        9.8897771898
  O        19.6959067891       11.6655943246        7.7428003664
  O         2.9596402499        3.0029989083        0.5362767826
  O         5.6600722619        9.5033100904       17.8922764634
  O        17.4755584492       13.2984543655        1.3729805411
  O         3.2161079197       10.3772533803        6.4807343746
  O        18.4730933628       19.8910768890        5.7156544955
  O         0.6995166934        8.7093985416       12.7134841382
  O        17.8518718743       12.7961135985       18.2432359851
  O        15.5430625315       16.5343400040       16.2337290563
  O         4.2825703934        6.3052698129        4.6886969208
  O        12.7658990754       19.8728370922        7.7280768388
  O         3.9577981191       19.6557870588       11.5951054770
  O         6.8918760150        8.4496565061        0.4711931496
  O         3.8469749589       19.3552736310        4.3762805302
  O         0.6960733323       11.3038387021       12.6759339051
  O         9.4389154580       19.0504938796        4.5155278791
  O        12.4894473365       19.8032874085        2.4956593426
  O        18.7644360626        6.9442015142       14.3543912033
  O        10.2244100224        6.1509489698        3.3563607966
  O         2.4103165525        7.1858131940        6.5933135476
  O         9.6594654723       20.0193711695        0.5617742485
  O         2.6823371648       19.2754462835        0.3789834663
  O         0.6958147686       14.9041060599        6.2152788318
  O        19.5025098064        8.2548660360       -0.2983938655
  O         3.4023961042        9.6109166281       16.6073736864
  O         2.5684992893        4.6614574161        6.0527184304
  O         2.4374494519       15.8419008914       13.4469163039
  O         3.1252810851       19.6104259422       16.5419143291
  O         1.7921330513       11.0654634030       15.1250623053
  O        17.4250946282        4.3525154791       16.3119811504
  O        18.6148966012        5.8433729976       -0.4535255554
  O         5.1350134320       13.4913487235       19.5695586435
  O         3.1758062678       16.7750772053       16.6709240046
  O         8.1776924046        5.3474114301       18.5371626816
  O        17.0429471342       17.2975275265        9.1026023179
  O         7.0398686832        6.6985543163        2.3864634005
  O        18.9175715095       17.4171393475        0.9245693355
  O         8.0478998271       18.7754762157       18.2753785668
  O        16.4654550200       11.3600256975       13.8755709807
  O        18.9326552785       17.1563266501        7.3363393215
  O        19.9827270709        3.0045298092        4.8459640488
  O        13.0375091609        2.6791111849       12.3641310130
  O         4.9590986526       18.6188304055        1.6447178613
  O         7.2230062102       16.3379422482       17.5315067654
  O         3.4264043593       17.9497910355       14.4503354364
  O         8.3213047443       10.0913852909       18.1758726942
  O        13.7110913874       14.5253064042       15.6155896280
  O         6.0191044955        1.8572760710       11.6345760811
  O        11.4955786851       16.0856237233       15.4981985784
  O         9.7428522039        3.1847845198       -0.4881071142
  O        15.5692796445       11.2523249496       18.6208151065
  O        18.9205144971        5.3698296353        3.6832787480
  O        10.3699786568        5.2486506057        0.7808373047
  O        19.6999802724       19.9890741077       13.3312241194
  O        18.4745778868       15.1305144656       18.9064435372
  O         5.8273878110        1.6018375063        5.1098652545
  O        13.8100927910        1.4562515368       17.3829047925
  O        15.9498534919       18.8667115720        0.5024265626
  O         8.0453850715        9.1844645002        2.8252184823
  O         6.2570377008       18.6154197376        3.9945670413
  O        16.6985433511        4.1244604980        4.3701789584
  O        18.8559696388       12.1857245084       14.7898257162
  O        11.4749738354       13.9249413140       17.0681730896
  O         4.7942501150       12.8788826085       17.0009937140
  O        20.0604353790        2.3985547801        1.3445022178
  O        12.9728348607       17.1120156137       -1.0210071581
  O         1.6594450830        4.0932358744        9.7558860078
  O        20.1904341929       10.7516523321        0.4707822238
  O         7.0855254758       18.5733153659       14.5495706101
  O         1.7809312513       13.4095726737       14.0076212610
  O         3.9226560905        4.8625960130       18.1796675480
  O         1.3119600550        8.3670554378       15.3466346661
  O         6.5302042223       16.5282657732        2.4937360733
  O        14.3309351707        5.8614813751       19.1001137560
  O         2.2814399606        3.7163933877       14.7980932395
  O        18.0378717695        2.5848783647       14.3094532049
  O        19.8508260658       15.1369968337        8.9022929906
  O         4.3705946605       17.7523770164        9.5993011454
  O         1.0750595307       18.2687776633       15.6779885164
  O        17.8910237114       10.2435255641       18.8921979450
  O        16.2007638004       14.0246327501       15.7972160469
  O         5.5049730009        3.4685971974        0.4886553052
  O        18.8758785795       17.5718092751       17.7674429414
  O        17.8205467874       17.9227800259       15.5396042626
  O         1.5108767019       16.3982506344       -0.5267493682
  O        10.1236337278        1.5095501223       14.2343182879
  O         4.2297422899       17.0137198967       12.0858518096
  O        18.4043286251        9.5372366207       14.7151854998
  O        20.1410727476       10.0977021099       17.3121106599
  O        14.9640070902       18.9876699283        9.1400667882
  O        18.6124893272        9.8630140101       10.7736541106
  O         7.5336311638        1.8321945940       14.7028235983
  O        15.7421143208       17.7812922309       13.9210536264
  O         3.9777744726        6.3434609781        0.9426822481
  O         3.4820679017        2.5845934027       12.5966504845
  O         7.8890759009        1.3795531784        9.6093208196
  O         3.3329913258       14.6983823428       18.0460026233
  O         5.7507088618       20.0933250412       16.3086809486
  O        14.7309669222       16.5364033426        0.9951991556
  O        16.7281651223       15.6079813626        6.9888984904
  O        10.5554188493        1.9988725585        3.4130825356
  O         2.2402116913       16.6793244204        7.4108300889
  O         3.9496220061        9.4605977662        4.0282582273
  O         3.3358076669       14.3388775596        2.9922529749
  O        12.7753115541       14.9029040832        0.6476020451
  O         1.8989300517        6.2572762910       18.6633576435
  O        12.2259793393       17.3835942276        3.6049472689
  O         3.3321305225        9.3587629828       -0.0225133541
  O         4.2077451217        5.1555688949       13.3402142662
  O         2.1789475090        1.4123794203        9.0125881448
  O        16.0448601923        4.3111877269       13.9431454638
  O         7.2022857038        1.5608496868       -0.0021395484
  O         9.1543974192       16.5299360435        0.0098749429
  O         5.1199028275       12.3113871897        2.4212546561
  O        16.6758627989       18.3161733512        6.7469765580
  O         5.3518198542       18.8843221918        6.6270226889
  O        16.0840124804        4.1337452328        7.4797067383
  O        12.2390802051       19.9851253995       15.5433427593
  O         7.6904298266       18.7730298370        1.6573214816
  O        19.2830953411       15.1561705789       13.1222205449
  O        16.9495529966        1.5930651040        7.5662949719
  O        18.3652362219        2.4026346442       11.7941955238
  O         1.9593536950        4.4871650303        2.4581658280
  O         2.3613612004       12.0423543748        2.0266862899
  O         1.9407723139        9.8572917348       10.6761707829
  O         1.8172429018        6.4953882725        4.1006362390
  O        11.2229662483        1.2317550705       17.9509649225
  O         5.1317971720        1.1858494984       13.9340881948
  O         8.0097793761        3.8755474490        1.3513806176
  O        11.6379277460       13.6588231430       14.3378621213
  O         7.2068658557       -0.7027085647       11.0350924413
  O        19.1708267732        2.3222484234        9.4730145653
  O         4.2059705660        7.4157930866       17.7201133069
  O         6.4585205779        2.1926142948        2.6406611514
  O        10.5244972926       18.2759285908       14.4969484985
  O         4.3692117052        2.3938493092       17.6584615195
  O        11.9219272643       19.6748545851       12.8150474942
  O         8.9199454324       16.2182206729       14.5449666291
  O         2.9089889000        2.0424673152        2.9475418326
  O         4.0166058035       16.8877346962       -0.0664871162
  O        18.6802560207       18.2120157176        3.5973788280
  O         7.4347731847       13.3644432209        1.5478096585
  O        17.7087632225        3.6860951826        1.8864268424
  O        15.3528404395        2.0582900392        1.1485276518
  O         1.2685669062       19.6454248894        4.1898280078
  O        20.1055574414        6.7438376576        1.6772671203
  O         8.4166440225        2.2017933541        4.6053522927
  O         8.9701473849        3.7476671864       13.6815293888
  O        21.0882315747       14.0482424566       11.4050699917
  O        12.9545254043        3.1737368511        3.0362720024
  O        14.6619652570       18.4965206117        2.9506548106
  O         2.7198865927       12.2523817584       18.6246389775
  O        16.7845207417       16.8410836027        2.2432142321
  O        17.4865687344       19.7821516554       10.2003128672
  O        14.6165614447       14.9807760286       18.0651266935
  O         8.4365694912        1.2475476111       12.3464435903
  O        15.4571269001        7.3431054000       15.8629697735
  O        17.1051199347       10.9835595495       16.4214224470
  O        16.2177527803       20.9034452872       18.0739544804
  O         0.9805490862        3.2536154994        7.3712197733
  O        17.0375888066       19.8381078985       13.0113766611
  O        15.6705328668        2.3117999742       15.5441433516
  O        10.7753273647        1.2040796715        6.0162266759
  O        12.1737219932        3.2158983252       16.1413894961
  O        15.9069075204       18.0948570258       11.3482126650
  O        17.8528917010        1.4242530620        0.5180685965
  O         1.4200298995       10.0296328204        4.6097668881
  O        20.0286481532       13.3613252474        0.5577896585
  O         3.2862391122       12.0374136911        4.4135283363
  O         9.3476279702        7.6289864474        1.2491665927
  O        19.3199914284        5.7933277904       10.9389490653
  O        12.9765106591       20.1157868496       10.4561687429
  O        19.0996582293       20.1469393358       16.7268636012
 Na        19.3824560095       13.4773622353        2.9699149715
 Na        11.3731108055        4.3020872570        4.3188882938
 Na        14.3845532946        9.0303057594       18.8656313823
 Na         6.1175572077       16.5002538036       10.7843044678
 Na         4.3626924951        8.3498331168        6.2030220825
 Na        17.2929824633       14.3675454395       13.5376974079
 Na         1.7757443668        1.2060518516       11.4077606652
 Na        18.3728673196       13.7671451314        7.6935265261
 Na        17.7741104022       10.7167714573        8.7493951073
 Na         7.9272612248       17.4267167359        4.8200400795
 Na        10.7671310673        4.6993080874       14.9872752814
 Na         1.7947543579        9.6997579337        8.3433044168
 Na         6.2724749343        5.9908338684        0.0999854397
 Na        10.2612921274       18.1505454791        2.5229990227
 Na        13.0585343679       17.4929018403       16.0530088284
 Na        10.0396759637        1.1513756235        8.9077480395
 Na         8.2129364374        5.1874913354        3.5689147661
 Na        18.3320768734       14.0188445191       16.4082462365
 Na        13.9852166953        3.3313774614       14.3917783687
 Na         6.0223638574       10.5187484327        3.6086561676
 Na        16.5901348816       11.2747268209        1.4987681917
 Na         0.8123039688       13.0233300803        9.6840418477
 Na         6.9457174397       18.8546434077        8.4651448464
 Na        13.9028451292        3.6866170099        0.5682773573
 Na        19.0414441369       15.9652684208       10.7610939438
 Na         4.3412941354       17.0493299456        7.4918030918
 Na        16.1401126085        7.0526623946        4.7446131141
 Na         4.4928141909        7.0960856572       15.3078442758
 Na        12.0997258222        6.3265706431       18.6565437895
 Na        20.0674669799       19.9156330022       -0.2377821656
 Na        12.9590629449       19.2511538009       19.2961647698
 Na        11.1252598961       17.6683562678        5.6974239021
 Na         2.7576621739        5.7035521090        8.2670300548
 Na         8.2913815714        9.6974786429        8.0403671462
 Na        10.4753361486       12.9090492932        5.3770731540
 Na         2.2161000860       13.1355164900        6.5446924715
 Na         3.7688972197       14.1427937247       15.3400591336
 Na         7.5394509428       12.3814560076       10.8415917633
 Na        16.5193980006        6.0512519828        0.3749826646
 Na        20.5752168999       18.7612561498        8.2178337460
 Na        20.4712624322        5.6795606104       15.3945868736
 Na         4.7663740572       15.4483356245        1.6493264529
 Na        10.9844527510       15.7361014922       -1.0121024171
 Na         2.4891494045       15.7836494106        9.9068489201
 Na         1.1920315067        1.6009266991       15.2789193864
 Na        15.4727161240        2.1633144267        3.4258279783
 Na        18.6385539861        4.7951857029       12.9006058986
 Na        12.9871648443       12.8120761954       18.8484660682
 Na         4.7427446986        4.5869952868        2.9775637586
 Na        15.0154508446        3.7166223354        5.6178320513
 Na        15.8128573984       14.6724132877        2.1197710503
 Na        16.3339890417        6.8292680780       13.8339380347
 Na        15.2298344903        5.4588757298       17.0668354218
 Na        19.9342127167        7.8768813898        5.6488792072
 Na         4.6387976997        4.0946476433       15.8171446477
 Na        20.2225863512       17.7481702906       13.1612421224
 Na         3.1491196110       12.3261163792       11.5161629972
 Na        17.7157773603        7.0832495872       16.5404986970
 Na         6.8829283779        4.7076367423       13.3802020186
 Na        18.2080893404        3.5222532177       18.0991393892
 Na         4.1540206199        1.1416628162        7.8294525157
 Na         7.6764943270        3.1790801983       16.5632627003
 Na        11.0848112077        4.0449350994       11.7758003249
 Na         4.8562755659        5.3104791178       11.1694377015
 Na         6.8556492435       14.2097245941       17.7657095986
 Na         8.5606254260       18.0541517152       12.8130670762
 Na         5.3373814867       11.1436778641       15.7243896261
 Na         9.8524327092       12.1646554698       17.5742964963
 Na        14.0567882709        6.5446152061        2.0744871867
 Na         8.4748622707        9.8424657253       15.6955325454
 Na         4.8670836505        7.5790675912        2.8620821499
 Na         2.3498807819        9.1483617839        2.2241624200
 Na        18.2251899372       15.2608672682        4.9839531127
 Na         8.8452599084       11.2446145625        1.9545255905
 Na        14.7640155825       12.1846997684       15.0649498518
 Na        15.0575571328        3.8086666609       11.7593687882
 Na         2.0356719950       16.2614440520        3.9208035727
 Na        18.2752302600        3.5388402544        5.9712328440
 Si        15.7909625728       18.8917183702       12.8107836644
 Si         8.5176542140       17.1672777833       18.0438115012
 Si        18.3491696423        1.4366227487       13.1494922931
 Si        10.5447132565        6.5729965758        1.8175001773
 Si        10.5393556029        1.8626101584       -0.0842396489
 Si         2.8159895187        6.1884911099        5.3724100343
 Si        19.8206777903        6.6621474001        0.0518641912
 Si         7.7776609279        7.9744390061        1.8110380121
 Si         2.6732849351       18.1574621134       15.8648785644
 Si         3.4823196368        6.3325549608       -0.5456366232
 Si        19.0466249134       18.5796179107       16.4749995997
 Si        16.8185967666       19.8695703794        6.2710317468
 Si        16.9592520263       11.3553812118       18.0105996504
 Si        18.4844015175        2.2858665610        1.8349778279
 Si        20.1684557693       15.9012933223        7.4377684979
 Si        19.2562313193       16.5931062490       -0.4068002713
 Si         9.0567260441        4.5038417501        0.1696068241
 Si        19.4189276353        8.3916462465       14.2219470458
 Si         3.9968586239       18.5709442567        0.3143808693
 Si        15.0888397807       14.9031548851       16.4798169453
 Si        15.4889733806       17.7652540699        1.7170957773
 Si        17.6788092036       11.0105305169       14.8302657955
 Si         3.8891603277       16.6240541017       13.6381210638
 Si        20.2996515960        5.7063152839        2.9629333786
 Si        16.0160642695        2.6864127777        8.2833155006
 Si         6.8392939335        2.7067649876        1.1208294167
 Si         1.4346033348        5.3341050141       11.0096165985
 Si        12.4653411429        1.2925499616        6.1877177772
 Si        17.8387729483        1.9664569701       10.3297679182
 Si        19.4489804592        9.7686682182       18.7889246903
 Si         9.7414392185        1.1849421347        4.6013302823
 Si        13.7257329775       15.9545483825       -0.2059692453
 Si         1.7993162860        9.7914096904       16.1336476931
 Si         7.3136069448        0.8904285557       11.0953915367
 Si        16.3635065792       18.6282194164        9.8662221707
 Si        19.9905821648        9.9571487570       11.6487091200
 Si        13.7923105310       20.0835384030        8.9952593332
 Si         2.9740840405       10.4511331603        4.8514556173
 Si         4.1524311117        3.4020980246       -0.4233575591
 Si        16.1524941262       17.8232692349       15.5270068577
 Si         6.1025613754       12.5431455283        1.1346590179
 Si        15.3636392785       20.6752104641       16.7642452995
 Si         4.6218897787        1.4779374883       12.4145131580
 Si         2.9864376992       16.2886463987       18.2678632083
 Si         2.6912004355        1.0812255846        4.2912225676
 Si        12.2902955232        1.7313735364       16.7194724774
 Si        10.0850380161       16.9012022613       15.3668692929
 Si        17.3130800109       17.0085293523        7.5023702701
 Si        18.4213725627       13.6433094595        0.1280618807
 Si         8.7099447340        2.1680392214       13.6619711555
 Si        17.3372690231        4.8751567582        3.1304816325
 Si         6.4157220441       19.9637769256       14.8162455788
 Si        11.2164566030       19.7293837633       14.2306675637
 Si         6.8225150056        2.4812519906        4.2405999982
 Si         3.5892256107       18.1386487835       10.9361656062
 Si         8.1101434225       19.5530752486        0.2952180096
 Si        13.2111329341       20.5014041878       12.0695759076
 Si         5.3171861680       19.4403114943        5.1071570615
 Si         0.9543112728       12.0138069926       14.0634224625
 Si         1.3701046377       14.6589609143       12.8259410152
 Si         3.5918149260       12.7690175366        2.9359704268
 Si        13.1518283569       18.6759631056        3.6224273767
 Si        16.8607461255        3.5225760237       15.0646326124
 Si         4.4712434649       20.2102574029       17.2493982193
 Si         1.2643789071        2.7741071441        8.8937679329
 Si         4.0858483693        9.0434910564       18.0316430304
 Si         6.3248855334       18.0984858680        2.3815610365
 Si         2.0746502379        2.9471972126        1.9580541175
 Si         1.7027324223       12.0787722334        0.5040883396
 Si        16.2551233188        1.1551511364        0.2805780028
 Si        18.4765312391       17.0250328910        2.4640052791
 Si        12.0014322368       14.4631098395       15.6929273967
 Si         2.9718241834        4.0614451345       13.3716374267
 Si         6.8950397706        9.8561985426       -0.5080732716
 Si         1.7529539560        3.2225768681        5.8730762767
 Si        11.9972660746        1.9671145415        2.5682108333
 Si        19.0198468407       19.6792599547        4.1930697072
 Si         4.0345495691       13.2397070550       18.3580119989
 Se         4.9612609423        9.3578102989       13.2753462104
 Se         8.0689838843        6.8980872880        6.6864074772
 Se         5.2382368653        4.1265785307        8.5521192781
 Se         8.0364691595        6.5482684901       11.2899804666
 Se        10.2373407056        3.8988998223        8.9508033975
 Se        13.7972734858        5.1750320925        9.7610750224
 Se         4.8106287932       13.2434461942        9.4642865016
 Se         6.9305949176       11.2464224191        6.0210534542
 Se         5.3821887640        8.6956173927        9.1548055580
 Se         8.9778777395       10.2847279360       12.6169755971
 Se        10.7433513012        9.9625144656        4.9790474057
 Se        11.2605484997        8.5123712292        9.3179480941
 Se        12.1896370380        6.6930772826       13.3493262833
 Se        10.3145234590        7.6816725458       16.4973736628
 Se        13.4226645950        6.3613623565        5.7952106064
 Se        15.7527629987        8.1922175483       11.5150250658
 Se         9.7635281118       15.3268265009        3.7942928577
 Se         7.4881668758       15.8243019725        7.1802422167
 Se         9.1217179976       14.5667886489       11.4546827707
 Se        11.3666027349       10.7606132899        0.6690336505
 Se        10.4669515625       12.4736557181        8.4269134863
 Se        12.8908746719       11.6034884052       11.6194636581
 Se         7.7594162010       12.5496011213       15.8441531697
 Se        15.0417248517        9.2581180948        2.8444999162
 Se        14.5940819782       10.2787888715        7.4660269788
 Se        17.2109932223       12.9822076473       10.5313277483
 Se        12.3080844345       10.5790845105       16.1003477801
 Se        17.6019879789        7.8203265053        7.4654135495
 Se        10.5320088345       17.5839995863        8.4886294007
 Se        13.5753302506       15.9175855921       12.0267021238
 Se        13.6150200708       13.5117994895        4.2015573575
 Se        13.4135461894       14.7916961576        8.2414041759
 Se        17.1143691195       12.6081767842        5.0499085030
 Cd         5.8920100527        5.2547279253        6.2938231598
 Cd         9.4552146284        6.4114825526        9.0320246038
 Cd         3.5373972077        8.4272488749       11.2444857775
 Cd         8.0129469485        6.4440632379       16.3574943103
 Cd        12.4728345583        4.4965572266        7.4765907377
 Cd         7.6353957266        3.5166808833        8.7204100824
 Cd         4.8950809857       11.0999848573        7.7451333249
 Cd         6.3731587317       13.6374454373        7.1396787574
 Cd         6.7318096675        8.8951712424       11.4082691044
 Cd        10.2608907436        8.8634767211       18.8860502979
 Cd         9.1622400382        8.0049680012        4.6092914094
 Cd        12.4418365466        8.6707111887        6.8241460632
 Cd         9.9693683208        7.7873802771       12.6033585280
 Cd        13.5261358786        8.2427986421       15.5873106272
 Cd        15.4167761264        6.2004448062        7.8886971225
 Cd        13.4277673091        7.6213095251       10.7806417026
 Cd         9.5964258747       15.0843324949        8.6056922021
 Cd         8.4510859434       13.9892480803       13.9439241339
 Cd         6.7089653618       16.6356465262       15.5047496749
 Cd         8.3306781129       15.2897184834        1.6935986247
 Cd        13.1813801373       12.2733433420        8.1197214671
 Cd        10.6233499004       10.7855793747       10.5009614752
 Cd        11.2955681520       11.1542857351       13.8159902807
 Cd        12.3040765888        9.4270401795        2.9016976724
 Cd        15.1093987577       11.0259520286        4.7755174306
 Cd        15.2305751320       14.4305739447       10.1600216926
 Cd        16.4293319668       10.7016816938       11.7629204572
 Cd        18.0607738034        7.4040309112       10.0273133331
 Cd        12.1309059454       15.2411124993        2.7760043013
 Cd        12.2725418483       16.8739070002       10.1003244161
 Cd        14.8050688982       14.9283133080        6.0473664188
 Cd        11.7097451172       14.0297610853       12.1452814964
 Cd        19.2552840072       11.1684377448        5.7802142119
