417
 i =     6400, time =    12800.000, E =     -8967.2520460671
  O        14.4740903617        2.2483103245        8.9464492929
  O        15.5157773851        1.2158395119        5.2673160364
  O         9.3122185854       17.4437623608       16.9415240894
  O         6.2484800110       10.9306982699        1.0363766732
  O         2.5862605012        6.3390012520       10.5380670633
  O         1.6584023163        4.7653534998       12.4479054931
  O        16.1520933763        6.2333774574        2.4413544242
  O         4.8341292291       15.7461397712       14.2863479242
  O        15.0508846193       18.9710834657       16.2044861375
  O        12.6296690097        2.8512237579        6.3723649511
  O        11.5982572659        2.2290494234        1.2255484156
  O        12.8644298357       19.5497910707        5.2574249486
  O        11.6815755869        7.3644787043        1.5201105902
  O         4.7750979882       19.1317006294       -0.6397155526
  O         6.5611847299        3.9982411689        4.5131801800
  O         2.4985201073        1.9632385292        5.8630956684
  O        19.0212571557       15.9475731778        3.3393360055
  O        14.3613608058       19.6008585001       12.5436864929
  O        17.9805533777       21.1122293062        3.3024458709
  O         6.4607459794        5.0072112319       15.7550406565
  O         1.8490897994       18.3644773537       10.9106229930
  O        16.8142031007        3.0607897029        9.7068382535
  O        19.2789699718       11.6503188828        8.0803888276
  O         2.7327448071        3.2461826177        0.8441155703
  O         5.2048256457        9.7575532511       18.1927723808
  O        17.1531117060       13.5087138137        1.3720529895
  O         2.7518410771       10.7833613782        6.6675542869
  O        18.0158518083       19.9666026997        5.6482354843
  O         0.3371451565        8.5149417011       12.9782177716
  O        17.8372436449       12.6678895354       18.1999267330
  O        15.9451503030       16.6127507772       16.5740094725
  O         4.1697604844        6.3118110160        4.6981194883
  O        12.7163317575       19.9521799564        7.8337723903
  O         3.8354011445       19.5044225715       12.1084951452
  O         6.6019189446        8.4712128699        0.7250503530
  O         3.5770515881       19.2738783530        4.6255165351
  O         0.2488281172       11.1009753508       12.6879799553
  O         9.5333931363       18.9809857252        4.5146933446
  O        12.2882269281       19.6550044451        2.7554545519
  O        18.6343629432        6.6655664199       14.6495663011
  O        10.1076708174        6.2414802165        3.5664521343
  O         2.3777954640        7.3174251359        6.5613332772
  O         9.5946037609       20.1145985441        0.6243204475
  O         2.5310057076       19.4282449185        0.8244866302
  O         0.6704914889       14.8038675036        6.4156519141
  O        19.3564777111        8.2888639901       -0.1027823407
  O         3.1043155217        9.5577332962       16.8960590115
  O         2.5420278064        4.7314562569        5.8424558755
  O         2.2926068422       15.4427285213       13.7992304158
  O         3.0710162992       19.5455917660       16.6207383099
  O         1.6423492546       10.8022615015       15.0751271618
  O        17.0400170796        4.3884167063       16.4023085313
  O        18.4183627119        5.8787053973       -0.5629331711
  O         4.7445638784       12.9451688908       19.4496567064
  O         2.9969491341       16.9324281121       17.0981511290
  O         7.8478337368        5.2918817340       18.6472277419
  O        16.7788447570       17.2768155188        9.1716343456
  O         6.9345015867        6.5662559187        2.4863028970
  O        18.5469908038       17.1791290651        1.0019096620
  O         7.9107544591       18.7190656180       18.5957775713
  O        16.3827562169       11.3715932776       13.8647053147
  O        18.6663031076       17.1161834717        7.1774470893
  O        19.7433650201        3.2141463406        4.8568944884
  O        12.9130058170        2.5085940019       12.5807180643
  O         4.9648710050       18.6776844745        1.8220508464
  O         6.8301655698       16.4928213540       17.5218398981
  O         3.0276688416       17.7696366048       14.6092851253
  O         7.8026195067       10.1635485520       18.3765803779
  O        13.4409575148       15.5533248220       16.1032733020
  O         5.9334579000        1.9550251143       12.0503440479
  O        10.9181693634       15.8440570193       15.6151553120
  O         9.7915063643        3.2457347249       -0.5115477077
  O        15.2705802203       11.5510896666       18.7659552807
  O        18.5974847518        5.8483928517        3.7058191266
  O        10.0009791877        5.3708202489        0.9353864228
  O        19.4476120399       20.0468376431       13.4628044040
  O        18.1286779087       15.1535021354       18.6485730335
  O         5.5386615333        1.7386737338        5.1729240573
  O        13.6624711008        1.5748090190       17.2493029847
  O        16.0845219948       18.8052261358        0.9484010827
  O         7.6810792158        9.1490413122        3.1264899148
  O         6.1408067482       18.7026574544        4.2180589327
  O        16.3339248106        4.4986883850        4.3494282074
  O        18.6224946655       12.0228672466       14.9508703612
  O        11.6481247711       13.8958690060       17.4274589378
  O         4.4057228391       13.0482492862       16.8552121152
  O        19.8780621667        2.4437875067        1.5553077953
  O        12.8717217416       17.0981821625       -0.7716536803
  O         1.2997959950        4.2103108409        9.7962321314
  O        19.8146362697       10.8688617663        0.5541214232
  O         6.8487924534       18.7396757901       14.6572797384
  O         1.4312160716       13.1341221896       14.0385979352
  O         3.8686618867        4.7871923983       18.4519818751
  O         1.0699988370        8.2231067723       15.5832399268
  O         6.4932894722       16.6709057945        2.6837861218
  O        14.0998155093        5.3648065523       19.1715985693
  O         2.2946940864        3.9332187153       14.8942374100
  O        17.9442827640        2.6223018197       14.4650168863
  O        19.2837074189       15.0881460872        8.9492212431
  O         4.3926912660       17.9708853330        9.7980136955
  O         0.8242320794       18.0012050794       16.0646760382
  O        17.6057729426       10.0431292493       18.6860025832
  O        15.7439216455       13.9717646187       16.2388198506
  O         5.3428583352        3.4509715616        0.8613992103
  O        18.4707104181       17.8185519370       18.0165067162
  O        17.6204323502       18.5084423270       15.6846342552
  O         1.1470340052       16.4263790392       -0.5242571145
  O         9.8433259757        1.1982942329       14.6513455125
  O         3.7063800066       16.9616997797       12.1210305850
  O        18.0061572094        9.3401041137       14.9145223839
  O        19.8815014996       10.0528167641       17.3415561718
  O        14.7090457081       18.9594991582        9.3320832485
  O        18.3241091417        9.6812678303       10.8101450892
  O         7.4143302592        1.9903798211       14.8501379596
  O        15.7650600046       17.6680395886       13.9875280334
  O         3.7031549324        6.2836286347        1.2135442393
  O         3.3422956096        2.6932632290       12.6910220230
  O         7.5577481679        1.5501847693        9.7806996812
  O         3.2320856487       14.7516325966       18.5044835048
  O         5.7438431022       20.2852895161       16.5694973665
  O        14.5518900962       16.7247311144        1.2865744923
  O        16.4455446186       15.7804140014        7.0219330877
  O        10.5334197337        2.1561368547        3.7506107167
  O         1.8354079568       16.6229420394        7.9043612769
  O         3.6122691147        9.7255281141        4.3186437929
  O         2.9458400036       14.5128668929        2.9412014817
  O        12.7594347030       14.9033234798        0.8993502049
  O         1.6225600706        6.1514821280       18.6310848403
  O        12.5479105026       17.2144083549        3.9822913480
  O         2.8856191581        9.2243399082        0.3103901520
  O         4.2561701192        5.0607302849       13.3306034792
  O         2.4024185437        1.7002943034        9.3603423544
  O        15.8439664494        4.2815899107       13.9845500260
  O         6.9914192120        1.6235487282        0.1420747944
  O         8.8070745995       16.4209764350        0.0806813830
  O         4.7731354089       12.4707322440        2.6903814655
  O        16.3487751994       18.4009980587        6.8172043200
  O         5.0991077698       19.0395636660        6.8036035649
  O        15.9500989945        3.9379215225        7.3818257199
  O        12.0532559785       19.8073810716       15.6867685137
  O         7.6631600764       19.0184778177        1.8757584554
  O        19.1394441960       15.2247307543       13.1639572089
  O        16.6237777231        1.4135576893        7.6720289925
  O        18.0973166054        2.3538109461       11.6890502242
  O         1.5308228795        4.5328112880        2.7489604927
  O         2.2759423138       11.9888937228        2.0141616577
  O         1.6491700731        9.7424414807       10.9142507573
  O         1.6015845762        6.7630225143        4.0787103222
  O        11.3145682344        1.1909197630       18.1262722301
  O         4.8586338140        1.4136049523       14.3451688984
  O         7.9805257951        3.6796104814        1.4139656065
  O        12.0945384969       13.5663108397       14.7128945736
  O         6.9185363474       -0.5532737161       11.3419318919
  O        19.2759110507        2.0349158760        9.3208823529
  O         3.9966563305        7.3042930959       18.0281038352
  O         6.6011805081        2.0231877698        2.8041553253
  O        10.3206275075       18.0056321470       14.4811982231
  O         4.2321840254        2.3533163633       18.0313017979
  O        11.6936530562       19.4527371734       12.8693622117
  O         8.3839274637       16.2694637389       14.6608433027
  O         2.7378421953        2.1294180894        3.1754865088
  O         3.6240112219       16.9538579983        0.2855536051
  O        18.3477710321       18.6189712688        3.2381972693
  O         6.9392727550       13.4821527049        1.1379953725
  O        17.6314166965        3.9939694027        2.0410524754
  O        14.8901226010        1.6713691295        0.9616946032
  O         0.9316034420       19.8367969579        4.1873606308
  O        20.0659093927        6.7546373970        1.6783210508
  O         8.2815402056        1.9684795978        5.0535877692
  O         9.1321328196        3.5143442445       13.5792462984
  O        20.9319594213       13.8789020862       11.5444414525
  O        13.0045214117        3.0364538630        3.2569708059
  O        14.6546306926       18.7008449502        3.1529371053
  O         2.3245348940       12.3936259725       18.6529436674
  O        16.5390976453       16.8494638852        2.8032556518
  O        17.5105543402       19.7173552113       10.0093455761
  O        14.5787953200       15.1099427960       18.3862178880
  O         8.3902531299        1.3332079909       12.3589226696
  O        15.1410988487        7.1999269218       16.2829247926
  O        16.5606896864       11.1178631050       16.3965089575
  O        16.1833207587       20.5455486148       18.0681442151
  O         1.1204986324        3.2980217083        7.4636827371
  O        16.7009839196       20.1131397365       13.1707526802
  O        15.5909858182        2.2489572193       15.6834070282
  O        10.5959698842        1.0910734923        6.2169235062
  O        11.9719564573        3.1793932193       16.1644603983
  O        16.2007760265       18.0317368882       11.4543951300
  O        17.6440213026        1.6673476118        0.7127029475
  O         1.0151240622       10.2056374547        4.7424656650
  O        19.6999866919       13.4564344976        0.6462182501
  O         2.9076542512       12.3041616621        4.5024613113
  O         9.1469896806        7.6661330530        1.4463193667
  O        19.2906358776        6.0579074629       11.0367531996
  O        12.7397313070       20.2402342557       10.4907163742
  O        19.2292926577       20.2749241163       17.2069200497
 Na        19.4337530091       13.9315445829        2.8082267360
 Na        11.5448457683        4.3427273865        4.4202112822
 Na        15.0740840002        8.8232958035       17.8506964482
 Na         6.3399445016       16.7188082004       10.3746105471
 Na         4.5246887603        8.4099369284        6.0805976680
 Na        17.3941078607       13.5619041990       13.1908336640
 Na         1.7057704616        1.2564301023       11.4784439253
 Na        17.6899072303       13.8146773165        7.5628852362
 Na        17.6149232810       10.3630998043        8.8128227473
 Na         7.7194091185       17.3630997557        5.0492308394
 Na        10.4383555041        4.4364492494       15.2467976181
 Na         1.4116812355        9.9909594281        8.4517533912
 Na         6.0526834253        6.3795131594        0.0579586757
 Na        10.3903480939       17.9791380995        2.5899168752
 Na        12.8507799065       17.7350952580       16.2042278703
 Na         9.7624382873        1.0764492890        8.9067764586
 Na         8.2386498554        4.9917879688        3.3769856880
 Na        18.0125232789       14.0156558734       16.4618386205
 Na        13.7429959357        3.1594700777       14.4007009022
 Na         5.7152416649       10.2918901470        3.5982060862
 Na        15.7012118161       11.5908273497        1.8051594615
 Na         0.2026526476       12.9953048592        9.8106791952
 Na         6.2446108854       19.2542301970        8.8009269333
 Na        13.5677707524        3.4517517139        0.6112608424
 Na        18.2203915614       15.6277258505       10.7853418614
 Na         4.1017012681       17.0006875179        7.5592605805
 Na        15.6783030204        7.1559242306        4.5099221801
 Na         4.8958052919        6.8666027625       14.8290879954
 Na        12.1405137099        6.2684961943       18.7836091040
 Na        19.6720603908       19.5636537043        0.4200642708
 Na        13.0676200448       19.2419181027       19.6027149275
 Na        11.3113207432       17.5638692622        5.9015372962
 Na         2.2858930022        5.7888210085        8.2695640283
 Na         8.4561695569        9.7477806278        7.6145503530
 Na        10.5148596035       12.8354978383        5.5052925915
 Na         2.1827243420       13.2019854680        6.8429686928
 Na         3.4086499814       13.9341015374       15.0979186171
 Na         7.5270937417       12.3878307023       10.8365493300
 Na        16.3066682804        5.5677701182        0.1458452919
 Na        20.6007511323       18.7797778843        8.7953206331
 Na        20.4299109981        5.7148294085       15.6259763308
 Na         4.7109242737       15.6038086152        1.8900434514
 Na        10.8996914462       15.5368413046       -0.4663276756
 Na         2.1258802025       15.6100853928       10.0311673588
 Na         0.9445172567        1.9323444782       15.4863385210
 Na        15.5120640341        2.1616019632        3.2330181066
 Na        18.4775563602        5.1386532549       13.0439371538
 Na        13.4390343533       12.7382224679       18.8404365722
 Na         4.9556682907        5.0025023071        2.9387629657
 Na        14.7974775346        3.5547955286        5.5080062287
 Na        15.4807239578       14.7384893024        2.0034332097
 Na        16.0289419744        6.7831766904       13.9973728973
 Na        14.6076489498        5.1064852484       16.8863524989
 Na        19.8397915293        8.2210443056        5.5928883308
 Na         4.3259705827        4.1501790112       16.0717375826
 Na        19.9751803719       17.9621991400       13.0322174691
 Na         3.0500333585       11.9515539575       11.4936150401
 Na        17.4873917607        6.5679264909       16.6948606691
 Na         6.6449206802        4.2022255745       13.3989603480
 Na        18.0789953809        2.8528740967       17.7742198563
 Na         4.0450856573        1.6083319183        7.7014374717
 Na         7.2650707036        3.0267511379       16.8137105219
 Na        11.0544407617        4.0756115549       12.1180577818
 Na         4.7723908815        5.4425118001       10.8426896764
 Na         6.4980408910       14.1448470008       17.9769884682
 Na         8.2184051399       17.9367793030       13.0136929809
 Na         5.1328585609       11.2157039670       16.0861032304
 Na         9.9496494349       12.2395336267       17.9918112135
 Na        14.0210577283        6.6472103532        1.8030099972
 Na         8.4238840330        9.4661925039       15.4043211647
 Na         3.9780079910        7.7700860925        2.9531098009
 Na         1.5267021731        9.2895244667        2.1812437575
 Na        17.9546979189       15.5686747501        5.2862974370
 Na         8.6836494035       11.1306885560        2.8405710554
 Na        14.3162612623       12.5170258033       15.0697061005
 Na        15.1492192257        3.3207073104       11.8541763596
 Na         1.5339696686       16.0261897459        4.5096041106
 Na        17.9167779378        4.2724506939        5.9878389722
 Si        15.7736578861       18.8517007564       12.8082510608
 Si         8.1374382290       17.1580181224       18.1571584582
 Si        18.1815273235        1.5457084600       13.1598081621
 Si        10.2970645002        6.6303190395        1.9977838590
 Si        10.5489042061        1.9006885576       -0.0096533294
 Si         2.7500856992        6.3339153658        5.3225774091
 Si        19.6083344059        6.7133517927        0.0398001425
 Si         7.5728495350        8.0037637731        2.0598728714
 Si         2.4225899360       18.1148600557       16.0807390337
 Si         3.2296688318        6.1781303126       -0.2609680199
 Si        18.8297682146       18.7631489348       16.7683840343
 Si        16.4915144277       19.9648255945        6.2484303984
 Si        16.7202943608       11.4033964848       18.0833564755
 Si        18.2596729767        2.5365066451        1.9165424095
 Si        19.8427224320       15.8270772150        7.6124389110
 Si        18.9520093142       16.5389462769       -0.4120631742
 Si         8.8385832483        4.4927108001        0.1990998863
 Si        19.1291894573        8.2014400788       14.5180292366
 Si         3.8018877454       18.6110796657        0.6524673896
 Si        14.9786853696       15.2927546244       16.7717449799
 Si        15.4377805026       17.8248101036        2.0680316511
 Si        17.3403735705       10.8856198664       15.0382425950
 Si         3.5705670484       16.4920433144       13.6491438662
 Si        20.0860568511        5.8748265694        3.0135236798
 Si        15.9753808103        2.7151209014        8.3296298534
 Si         6.7021091983        2.6785063434        1.3060794526
 Si         1.3665065827        5.4404193512       10.9325173181
 Si        12.2539935005        1.2780556761        6.3756135423
 Si        17.8921378080        1.9285916516       10.0506500593
 Si        19.2044918870        9.8149378747       18.8416017725
 Si         9.7045319001        1.1194460447        4.7775973264
 Si        13.6267183076       15.9784152305        0.0695349431
 Si         1.6114808996        9.7207185860       16.2528037800
 Si         7.1743602337        1.0153890601       11.3142645552
 Si        16.2338923930       18.6103027000        9.8738831301
 Si        19.6386655118        9.6991032541       11.7307882723
 Si        13.6294622166       20.1691314264        9.1345903453
 Si         2.5783733926       10.6783230892        5.0678269881
 Si         4.0072746052        3.4041735183       -0.1303260491
 Si        16.1026814818       17.8959762418       15.5962316552
 Si         5.7117895452       12.4664932935        1.2773036968
 Si        15.1869806295       20.5548065489       16.7792573559
 Si         4.4747308417        1.4902815199       12.7576671851
 Si         2.7103238563       16.2728507900       18.5395723508
 Si         2.4439011890        1.0566657087        4.4723960583
 Si        12.1027048558        1.7265970181       16.7561635822
 Si         9.6487523331       16.7952680359       15.4789026431
 Si        17.0995556918       17.1736303667        7.4938409097
 Si        18.0982220272       13.6115225687        0.0945378114
 Si         8.6905723391        1.9940520019       13.7793341879
 Si        17.1645430401        5.2184151594        3.1743899482
 Si         6.2365981430       20.1718470230       15.0490467922
 Si        11.0081108819       19.5047411960       14.4143292822
 Si         6.8209585498        2.4520380800        4.4890825545
 Si         3.4603689544       18.2094474428       11.0876477001
 Si         8.0435044272       19.6689501137        0.4391839422
 Si        12.9134308825       20.3694483176       12.1679643706
 Si         5.1062502440       19.4942985047        5.2990137978
 Si         0.6859681482       11.7115504619       14.1059218824
 Si         1.1712291303       14.4832726446       13.0046020283
 Si         3.2427850082       12.9075665436        3.0109350667
 Si        13.1634753151       18.6951296270        3.8420769808
 Si        16.6676900671        3.4797205167       15.1290623010
 Si         4.3772214038       20.0895648825       17.4959888116
 Si         1.2943726101        2.7555807041        8.9669277770
 Si         3.7162931550        8.9258159040       18.3619353667
 Si         6.3259446422       18.2413801741        2.5403358255
 Si         1.8497710043        3.0535982557        2.1790235586
 Si         1.4472216664       12.1939179496        0.6282303470
 Si        16.1465353948        1.0018276518        0.3558198489
 Si        18.2139334090       17.0892277647        2.6352649592
 Si        11.9933509219       14.5350396799       16.0273004574
 Si         2.9113291225        4.1732604880       13.3780919111
 Si         6.5048355153        9.8396199273       -0.1773880582
 Si         1.5094845909        3.3643874494        5.9065943634
 Si        11.9679630494        1.9604963040        2.8258684183
 Si        18.6678736043       19.9203613960        4.1947007436
 Si         3.6792420188       13.1879155219       18.2610229928
 Se         4.5579038590        9.5733429450       13.3460568490
 Se         7.7886680935        7.0088644048        6.5959788031
 Se         5.0382186705        4.0685401192        8.2292883685
 Se         7.6991740244        6.4562592866       11.3946582609
 Se         9.9293626644        4.1377841478        9.2654563508
 Se        13.9436657321        5.3285667989        9.9808378180
 Se         4.3976728749       13.2167208053        9.3667012318
 Se         6.7152828026       11.3421993613        6.1296534797
 Se         5.2733720997        8.6961311066        9.2101906640
 Se         9.0217968189       10.2023645002       12.3353391740
 Se        10.8601468052        9.9780510239        5.0625623964
 Se        11.2051017032        8.4465042004        9.1701203554
 Se        12.0095459830        6.8316462604       13.1884036047
 Se        10.1671918583        7.4723269826       16.8754675254
 Se        13.3042901723        6.3709283006        6.0483293251
 Se        15.5284582724        8.1159543687       11.5424076383
 Se         9.5987397730       14.8822860497        3.8727954976
 Se         7.1351136849       15.8929911681        7.5886784073
 Se         9.2533225951       14.7882738438       11.7371320302
 Se        10.7598475425       10.9885075919        1.0162885277
 Se        10.0942225737       12.3059233364        8.3721289345
 Se        12.8010260301       11.6448221625       11.7999303651
 Se         8.0747559023       12.4025965148       15.8238430250
 Se        14.7515671804        9.4060695651        3.0348644648
 Se        14.2869886318       10.3401803360        7.6389765821
 Se        16.5819021552       12.9213291986       10.5403245057
 Se        12.4306590525       10.3596492170       16.4062454486
 Se        17.6824185959        7.5454750858        7.5840124345
 Se        10.0275365132       17.4203894162        8.7688877065
 Se        13.5439054058       16.0848890716       11.9492696236
 Se        13.8690772433       13.5175653004        4.2933524620
 Se        12.9988568294       14.8970742102        8.1852215044
 Se        17.1349004886       12.6221756761        4.8885745792
 Cd         5.9317655680        5.2503032388        6.1021139317
 Cd         9.2407463571        6.6834001426        8.8172327675
 Cd         3.3064553623        8.3469485113       11.1291042556
 Cd         7.8971796130        6.1513223271       16.5631184481
 Cd        12.6536122336        4.5270951506        7.8992537130
 Cd         7.3949784025        3.5190490263        8.8869448559
 Cd         4.6234971000       10.8370774969        8.1041154669
 Cd         6.1948166992       13.5641283884        7.1867664069
 Cd         6.4034107561        8.7602035476       11.6814875360
 Cd         9.8252469201        9.0225581059       18.9878193338
 Cd         9.1349667045        8.0788024070        4.7079574294
 Cd        12.4581011517        8.6594977495        6.8895218948
 Cd         9.6476132600        7.5715086114       12.5868352875
 Cd        13.3758104508        8.0378427053       15.2620761438
 Cd        15.4689848906        6.2880916117        7.9581267738
 Cd        12.9902939939        7.6315775718       10.8400785024
 Cd         9.3334924492       14.8492468136        8.4158485175
 Cd         8.5728834991       14.0212971997       14.0218004008
 Cd         6.2552733642       16.9111553849       15.5105843501
 Cd         7.9870874869       15.3098599885        1.7257031569
 Cd        12.6795194964       12.2681477034        7.8358905924
 Cd        10.6758889445       10.7922003298       10.3680844670
 Cd        11.3154441051       11.4428240510       14.1815680585
 Cd        12.1115365070        9.4558170687        2.6831494050
 Cd        14.9929051801       11.0272179259        5.1371507529
 Cd        14.2959742748       14.0199962872       10.4227151994
 Cd        15.9671918533       10.7320552771       11.7751602392
 Cd        17.8093166672        7.4970962580       10.2338883857
 Cd        11.9950578747       15.0339919741        2.9837189251
 Cd        11.9305500924       17.0586156085       10.3532836780
 Cd        14.5109545215       15.2824973650        6.0738233755
 Cd        11.7401713137       14.2590507070       12.5415366029
 Cd        19.2190814294       11.5329125750        6.0079932797
