417
 i =     9500, time =    19000.000, E =     -8967.2347591073
  O        14.4730394334        2.0899044992        8.5552764414
  O        15.9358320182        1.1586876831        5.0207339723
  O         9.6852172189       17.2159774517       16.8740529728
  O         6.0950910549       10.9705829542        0.5018669294
  O         2.7201094612        6.5834368295       10.2641893135
  O         2.0662047461        4.7990885111       12.1033058992
  O        16.7328291479        6.0405774187        2.2484354977
  O         5.2739829135       15.7485250788       13.8714679889
  O        15.5598557591       18.9435398323       16.0411219663
  O        13.0856165991        2.6989296926        5.9949100954
  O        11.7473569197        1.8516892464        0.7279396387
  O        13.0692418022       19.5732004632        4.8107982834
  O        11.8187440305        7.3278697112        1.2501494558
  O         5.2366420769       19.1988613788       -0.9275902417
  O         6.8613538002        4.0242644075        4.3370231570
  O         2.7308623872        1.8459357463        5.6778093463
  O        19.1690235268       15.4119462725        3.0929807413
  O        14.5418079611       19.5599586062       12.3616034059
  O        18.3415813702       20.4698414767        3.0912899636
  O         6.5417329191        5.5189476348       15.4029363724
  O         1.8701284128       18.2300565151       10.8936624390
  O        16.8541465936        2.8018371899        9.5493039336
  O        19.6892640477       11.7328635982        8.0415825705
  O         3.0316708268        2.7223091487        0.4928912197
  O         5.6014963407        9.4208872713       17.7271956968
  O        17.6843161621       13.3854975547        1.0327787934
  O         3.3943120028       10.5495262451        6.3859313122
  O        18.4357041196       19.6921034471        5.6329356053
  O         0.6004562881        8.5707246176       12.6407636677
  O        18.1760835421       12.8565736663       17.8003522708
  O        16.0790638826       16.3374516399       16.0168812577
  O         4.5686022134        6.1132119177        4.5105992933
  O        13.0028115977       19.6370238021        7.4760314612
  O         4.0243756577       19.7074843521       11.6509281403
  O         6.9260286270        8.4013702550        0.2482748794
  O         3.9607320740       19.2274462456        4.3934100652
  O         0.9615916634       11.1799744554       12.5658066977
  O         9.6002117020       18.8006430649        4.3442055507
  O        12.5002943929       19.4408152856        2.2852971834
  O        18.9003845547        6.7267391073       14.3584936440
  O        10.2298124849        6.2286506790        3.1463400297
  O         2.6647943725        7.2394949505        5.9914858558
  O         9.6806166423       19.8680681056        0.1140027827
  O         2.9062704808       19.2641415544        0.4255267997
  O         0.8833610154       14.6777363476        6.2727190632
  O        19.9227839007        8.4535703957       -0.1408383535
  O         3.1455444904        9.1159341781       16.8944488668
  O         2.5933825239        4.5966467800        5.4361051885
  O         2.5003798301       15.5762202827       13.8004676480
  O         3.6367286261       19.5729581880       16.2773795082
  O         2.0744035270       10.6759942423       14.9968928074
  O        17.1403057354        4.3354512335       16.1250276188
  O        18.5825547601        6.2867057466       -1.1473263468
  O         5.3553123679       13.4626780338       19.3345774924
  O         3.6087547583       17.0822009702       16.8819882103
  O         8.0723525534        4.8594472390       18.2968105180
  O        17.2882766583       17.2667221423        8.9459223110
  O         6.8529477497        6.6415725718        2.1323451579
  O        19.3899076229       17.3817584513        1.0656455340
  O         7.9368191555       18.4617078617       18.2913121949
  O        16.6252397807       11.2269733711       13.7428219577
  O        19.0151357961       16.9394179164        7.0506936063
  O        19.9606576169        3.0953556012        4.5679377871
  O        13.0449383028        2.4129266880       12.1709507759
  O         5.2267520555       18.5737296561        1.5483460612
  O         7.2436105862       16.1956734474       17.0551247313
  O         3.5737193580       17.7770144644       14.3209918139
  O         8.2131584823       10.2559014514       18.2607567906
  O        13.7146631814       15.0629970909       15.5884923206
  O         6.0825593555        2.1529204028       11.4523209534
  O        11.4624770807       16.0457723513       15.3276802103
  O         9.8844382837        3.0422949745       -0.8929400063
  O        15.6332251945       11.7000361688       18.4344543802
  O        19.0236687487        5.3861667361        3.4938661492
  O        10.3502066642        5.1773631373        0.5258087237
  O        19.7584617409       19.9836146364       13.3475192480
  O        18.5786586919       15.4237906913       18.6206997976
  O         5.8790985076        1.6900354722        5.0146285243
  O        13.9369537560        1.2545470202       17.1545258418
  O        16.3717516394       18.8600120025        0.6170286811
  O         7.9678231372        9.1596897880        2.7314312487
  O         6.4925481535       18.6193628967        3.9587956366
  O        16.8240853085        4.1048615254        4.2044518501
  O        18.9837802945       11.9002257697       14.8523233329
  O        11.7692563382       13.8684523128       16.9980289910
  O         4.7609990914       12.6732877676       16.7568456838
  O        20.2190366747        2.0237836500        1.6003634799
  O        13.3674169570       17.3424895933       -1.0735960410
  O         1.7445225766        4.3170060124        9.5928562988
  O        20.3700143961       10.8559537759        0.2453558398
  O         7.1478213629       18.9031730138       14.1916840201
  O         1.8303883993       13.1273023283       14.0584875426
  O         4.0148530771        4.6174343085       18.1151975481
  O         1.4484020532        8.2263655514       15.1600309999
  O         6.7556456034       16.4347565179        2.4947991302
  O        14.5450767725        5.6187265514       18.9581791743
  O         2.5103962163        3.7518327020       14.6081397437
  O        18.1378502899        2.7087197474       14.0682285925
  O        20.3901059900       15.3715004128        8.8533751765
  O         4.3420489295       18.0753722118        9.6313498934
  O         1.3449060087       18.1018188422       15.6780464428
  O        17.9671485601       10.3081884098       18.6641227566
  O        16.0277894111       13.7879651270       15.9466609410
  O         5.7151257237        3.2987789292        0.4193299516
  O        19.0793553195       18.0536943663       17.9334490586
  O        18.0842139595       18.2451100452       15.6994970685
  O         1.5936405442       16.3123878318       -0.8130857873
  O        10.0978402513        1.3206550542       14.0483285466
  O         3.9875525750       16.9819517955       11.9289449289
  O        18.3732341520        9.3183322916       14.6164224542
  O        20.0615822273       10.0553194717       17.1015655139
  O        15.2063010618       18.9861077828        9.1736940205
  O        18.6856255494        9.7995807862       10.6958966030
  O         7.5683269591        2.1874397069       14.2870259287
  O        16.2459178314       17.7892563469       13.7844080317
  O         3.8349961741        5.9395344631        1.0363151163
  O         3.5082388110        2.6208719495       12.3132773976
  O         7.8778049319        1.6864789212        9.3920227073
  O         3.7351197233       14.7023576664       17.8675157603
  O         6.2213283543       20.4296780847       16.2872193621
  O        14.9293296984       16.6030835799        1.1075908753
  O        16.7759391577       15.5634947692        7.0322971559
  O        10.7975346733        1.8493118496        3.3912770491
  O         2.1699108190       16.9039728026        6.9011147795
  O         3.7643373909        9.6614900529        3.8469588150
  O         3.2885314817       14.5673124523        3.2736794607
  O        12.8521086783       15.2576645232        0.5641957355
  O         1.9764445823        6.3187350569       18.2481131052
  O        12.8026000945       17.1096367086        3.6859525445
  O         3.6244422853        9.0530704979        0.2891897187
  O         4.5615943725        4.9372606061       13.1378009003
  O         2.5027641683        1.7798132904        8.8629405132
  O        15.9948683740        4.2561025982       13.6837239379
  O         7.4517937056        1.5739671360       -0.0389556960
  O         8.8935964106       16.1789913185       -0.1557552270
  O         4.8899496557       12.5317358678        2.3704054795
  O        16.5362231811       18.2196757869        6.5400148411
  O         5.4521401199       19.0253707644        6.5543134480
  O        15.9661398167        3.8760414692        7.2610658828
  O        12.4552009427       20.0591311959       15.1432691290
  O         7.7900909514       18.8631679383        1.5848220535
  O        19.3970420600       15.0234538779       13.4329734519
  O        16.7903060644        1.2204060563        7.4998545307
  O        18.8695554469        2.3178642623       11.5057979256
  O         1.9602400681        4.2271254064        2.3570279931
  O         2.1939406942       12.4195256903        1.9001195092
  O         1.9185855343        9.8523538849       10.5508521165
  O         1.9856865931        6.5287179012        3.5819452780
  O        11.3774484356        1.3421161466       17.4776315854
  O         5.2098105319        1.3003070972       13.8567679973
  O         8.3246597477        3.6667013431        1.2770700598
  O        11.7427872411       13.6980765048       14.2495580653
  O         7.3902037712       -0.3021159755       11.0589795730
  O        19.3349105146        2.1902578144        8.8612220783
  O         4.4877221177        7.0647342264       18.0236636463
  O         6.7897643478        2.0569259305        2.6415200831
  O        10.5422101260       18.3051945403       14.6304549700
  O         4.5762130667        2.2833703177       17.6782245398
  O        11.9164289170       19.3390659936       12.6385280399
  O         8.8666103641       16.2074456682       14.3874116236
  O         3.0719482560        1.9607209378        3.0087611885
  O         4.0062699597       16.8338259851        0.0592532202
  O        19.0729842499       17.9160176196        3.7989064507
  O         7.4632423441       13.0240375240        1.5792754235
  O        17.8739390123        3.5523978075        1.9777344592
  O        15.1855682871        1.7600917249        0.7077333235
  O         1.3674349841       19.5478049645        4.1790317073
  O        19.9981152707        6.2608920274        1.2526675861
  O         8.5176222684        1.8719546240        4.7925432599
  O         9.5033708404        3.8618573344       13.5855320627
  O        21.1887088531       14.1570903041       11.5335999465
  O        13.0975002474        2.9200847198        2.7117760513
  O        14.9167446864       18.7418433162        2.8699633999
  O         3.0011599419       12.3437535504       18.6989343604
  O        17.0344870580       17.0128603420        2.4873479551
  O        17.8219709122       19.7861720101        9.9917191304
  O        14.8548943957       15.1459881546       18.1388200204
  O         8.7604384776        2.0083027057       11.8435033577
  O        15.1199658883        7.5411859560       15.8579289367
  O        16.9559425341       10.9501172738       16.2107674481
  O        16.5109423810       20.5562704984       17.8257205453
  O         1.1334924444        3.4914855541        7.1476698164
  O        17.0723758380       20.1368614209       12.8692733532
  O        15.8720949101        2.1422143501       15.3985922309
  O        10.8872819455        1.1069441193        5.9707576619
  O        12.4929465605        3.2890841470       15.8748582713
  O        16.3928307790       18.0319535465       11.2939133774
  O        18.0018175552        1.5379327465        0.4477542190
  O         1.3122919088       10.1556386078        4.6264141728
  O        20.1455422906       13.5872437365        0.0428502799
  O         3.0094369719       12.1528498200        4.3563137420
  O         9.1936228638        7.5679430341        1.0664152609
  O        19.4407624670        6.0427032901       10.8331478163
  O        13.0150431248       19.8305630789       10.2330732352
  O        19.7182650028       20.3305033667       16.8186848949
 Na        19.7665598005       13.3632523167        2.8916694560
 Na        11.9997853565        4.7546862714        3.8856566048
 Na        14.9999248681        9.4334139514       17.1751377128
 Na         6.1376164993       16.8839451047       10.6150076311
 Na         4.6437424119        8.3451988297        5.8645474928
 Na        17.4809381673       15.3513676557       12.4476262030
 Na         1.8083283889        1.3212021316       11.3443617531
 Na        18.3074407979       13.6741391481        7.7011679634
 Na        18.0320723186       10.5341010082        8.8181146910
 Na         8.1558792895       17.2970235553        4.9638083381
 Na        10.7963274463        4.5449169987       15.2245189030
 Na         2.0432477539        9.9636289746        8.1428229878
 Na         6.3788580081        5.9533920524       -0.1222759259
 Na        10.3029217529       17.9047913490        2.2318122193
 Na        13.3875025615       17.7546996294       16.2354791759
 Na         9.9507468296        1.0244330159        8.2942567184
 Na         8.4813399132        5.0312444664        3.3518673813
 Na        18.3917267636       14.0802850707       15.6333146923
 Na        13.8675994523        3.3794145853       14.0265897427
 Na         5.8049356236       10.5750151682        3.3235580877
 Na        16.6432569990       11.3846900824        1.2499916369
 Na         0.5534718996       13.3331488896        9.8160347379
 Na         6.6157702311       18.8599805612        8.4653061857
 Na        13.9352033692        3.6461225153        0.5180520091
 Na        19.6455496182       17.2410776056        9.8942929020
 Na         4.3940068222       17.0848649034        7.3332742728
 Na        16.4242070729        7.4958459206        4.3201525752
 Na         5.4721715758        6.9822742817       13.9985219228
 Na        12.6577942103        6.6693281196       18.6094748564
 Na        20.2069767867       20.0116059811       -0.3081176741
 Na        13.6503827271       19.5221470310       19.4293927002
 Na        11.3076948278       17.3391501694        5.4916364064
 Na         2.9611038083        6.1980150222        7.9999946241
 Na         8.9763887138        9.9469907526        7.0898833465
 Na        10.9701649801       12.6510096254        5.2579241401
 Na         2.4510989888       13.1460836167        6.9052653368
 Na         4.3520966698       14.0038928825       14.9288423266
 Na         7.5335019962       12.3881975833       10.8387823618
 Na        16.8268395164        5.4053970834        0.0851325273
 Na        21.1935217574       19.1581687382        7.6555145817
 Na        20.2943870284        5.5595468773       15.6318319164
 Na         4.5165777289       16.0041043444        2.1671281097
 Na        11.1273463901       15.6881731814       -0.8993973008
 Na         2.7882920197       15.2648609140       10.0963872130
 Na         1.7302297326        1.5384494706       14.8702170674
 Na        15.3817895743        2.1635091996        3.1088211331
 Na        18.7165210157        4.9497900533       12.8672287584
 Na        13.5929610164       12.9729258218       18.3799727250
 Na         5.0025818865        5.0343170378        2.6516517756
 Na        14.9618884058        3.5531619616        5.2991690617
 Na        16.0994264556       14.6748742907        1.8205242807
 Na        15.8892995506        6.7708613069       13.5911357887
 Na        14.7389247776        5.2312932198       16.8472638988
 Na        20.1261020032        7.7106176818        5.2487003469
 Na         4.5671018883        4.7962744047       15.7052008538
 Na        20.5276868334       17.6990390303       13.1703202154
 Na         3.0566647547       11.9074199399       11.4336399532
 Na        17.1040915103        6.7172582539       16.3020130981
 Na         6.8147075967        4.2447707577       13.5346461621
 Na        18.4567454937        2.9013416612       17.4375674372
 Na         4.3788109640        1.6754690795        7.3056779418
 Na         7.3618311649        3.4288250269       16.6884584186
 Na        11.1778885547        3.8257579726       11.6021121529
 Na         4.6525940679        5.1344631732       10.7854816756
 Na         6.7495073842       14.0973185669       17.2997720075
 Na         8.9411265598       18.1634457120       12.5786480750
 Na         5.3270431460       10.8306288356       15.7845557583
 Na        10.0309778971       12.2288833980       17.0046761694
 Na        14.5244014292        6.5774166724        1.5601280341
 Na         8.9652754780        9.8223396339       15.3984205469
 Na         4.4293582382        7.8306278355        2.3609906442
 Na         2.0418450245        9.3920161033        1.9259869279
 Na        18.1804393460       14.9939787888        5.1157047151
 Na         9.0200904653       11.1939111972        2.2436362617
 Na        14.8452030745       12.4514564111       14.5136521281
 Na        15.1954293153        3.6465196238       11.4188415417
 Na         2.0216409473       15.9139823064        4.6572226541
 Na        18.1607786784        3.4735092168        5.8575307538
 Si        16.0620842375       18.9384332618       12.6350610326
 Si         8.3750205741       16.9845305394       17.8618583367
 Si        18.5272908442        1.5210836361       12.9732278615
 Si        10.4163676496        6.5684346676        1.5598712181
 Si        10.6618509831        1.6856219475       -0.4335986812
 Si         3.0249569366        6.0779441426        4.9228404520
 Si        19.8917966390        6.7541086068       -0.3419140451
 Si         7.6963380684        7.9570537666        1.6843718805
 Si         2.9879902804       18.1445162903       15.8158168930
 Si         3.5098391675        6.0672069093       -0.5439304924
 Si        19.4013894057       18.7778054768       16.4812766627
 Si        16.8112632458       19.7750594232        6.0666946339
 Si        17.1010767036       11.5574342004       17.7928498568
 Si        18.6342107879        2.1197690985        1.8618804578
 Si        20.3581442460       15.9183070615        7.2979455211
 Si        19.4359401996       16.7814193085       -0.4731495244
 Si         9.1279503280        4.2962985105       -0.0448743108
 Si        19.4840697514        8.1482202053       14.1654083884
 Si         4.2295357993       18.5257103481        0.2896206917
 Si        15.1768388657       15.0090048438       16.4384589485
 Si        15.7582890178       17.8174425905        1.8071981926
 Si        17.7164847744       10.7978822557       14.8307787987
 Si         3.8930255971       16.4467172850       13.4508920862
 Si        20.3949544856        5.5158453909        2.6771288231
 Si        16.0109343873        2.5135016569        8.0987850648
 Si         7.0694221231        2.6166805926        1.0917157641
 Si         1.5896239322        5.5257847676       10.7333012023
 Si        12.5466603122        1.1588520701        6.0931389499
 Si        18.2168524675        2.0072185137        9.9766730337
 Si        19.5458869943        9.8745756707       18.6229429583
 Si         9.9201245572        1.0082147835        4.5760908548
 Si        13.9646225206       16.1716890388       -0.1993061375
 Si         1.7759249971        9.4756606922       16.0980617496
 Si         7.5062212842        1.2802774726       10.9229442819
 Si        16.7074938319       18.5636710051        9.8289385358
 Si        19.9897221389        9.8569975084       11.5571666248
 Si        13.9271140966       19.9140408209        8.8741577351
 Si         2.8794718922       10.5644894214        4.8069400988
 Si         4.3050744498        3.2129060434       -0.4216601477
 Si        16.5393640051       17.7910197214       15.4239344695
 Si         6.0117409871       12.5090828070        1.0731821985
 Si        15.4748366062       20.4407516072       16.5510159689
 Si         4.7520317925        1.5693988191       12.2732982401
 Si         3.1891934256       16.1659042240       18.1971993568
 Si         2.7944156298        0.9278836918        4.2774069861
 Si        12.5453215029        1.7965224128       16.3807672929
 Si        10.0698974480       16.8789822418       15.3254368758
 Si        17.3862643671       17.0259923878        7.3125034061
 Si        18.5624116600       13.8351536212       -0.2676467778
 Si         9.0097808847        2.3608199917       13.4123783777
 Si        17.4994485603        4.8575937510        2.9992794210
 Si         6.5785289290       20.2896532448       14.6114330769
 Si        11.2846782144       19.5808162909       14.0721318931
 Si         7.0477025016        2.4796219922        4.2293682084
 Si         3.4965450108       18.2783538774       10.9160416445
 Si         8.0656581169       19.4751451585        0.1257182962
 Si        13.1208940199       20.2752264127       11.8908974475
 Si         5.5247434292       19.4384273289        5.0458674863
 Si         1.0774656835       11.6823278828       14.1542743281
 Si         1.4508822543       14.4329641606       13.0436790717
 Si         3.4222425322       13.0353322269        3.0483751321
 Si        13.3148650541       18.5854856448        3.5178784783
 Si        16.7788706890        3.4543068336       14.8254344280
 Si         4.8926402300       20.1192819564       17.2072820374
 Si         1.4466943206        2.9139479578        8.6850407241
 Si         4.1297713475        8.7035620435       18.1887740348
 Si         6.6260980892       18.0210319547        2.3723177369
 Si         2.2486029801        2.7122058879        1.9137475037
 Si         1.7608053548       12.3549394152        0.3358129410
 Si        16.4454304764        0.9997795150        0.1141082280
 Si        18.7363988171       16.8649361031        2.5572943496
 Si        12.1346514796       14.5540948412       15.6263708221
 Si         3.1548012203        4.0974537900       13.1717655956
 Si         6.7681567728        9.8356318470       -0.4904884116
 Si         1.7018317971        3.1965366806        5.6615609977
 Si        12.0749835932        1.7327535296        2.3076932654
 Si        19.1614604329       19.4398384540        4.1747069580
 Si         4.2286923836       13.2056759395       18.1250559600
 Se         5.1062765970        9.4267034327       12.9255776047
 Se         8.0916396981        7.3167614081        6.2517433127
 Se         5.2874084343        4.2514647825        8.1523270647
 Se         8.0255942010        6.4191178132       11.0021097716
 Se        10.3749879400        4.1329855270        8.6786988670
 Se        14.2234788772        5.3747673042        9.4669245764
 Se         4.7210521647       13.2230930983        9.3076822770
 Se         7.0225769430       11.8658659713        5.7953827803
 Se         5.4590101901        8.6540307185        8.5600399638
 Se         9.4311499846       10.4539562775       12.2410297580
 Se        11.4067860365        9.9392567987        4.6000376806
 Se        11.4820244756        8.6047930803        8.7841931267
 Se        12.3294074279        6.4729874897       13.0377555354
 Se        10.3736177843        7.3322643122       16.3230801306
 Se        13.7739303566        6.3294745795        5.5070683637
 Se        15.7722993504        8.4042787890       11.4357544870
 Se         9.9352769499       15.1743381057        3.8762978633
 Se         7.4256516537       16.1241871512        7.6819906788
 Se         9.5580109805       14.6163544384       11.4602317515
 Se        11.2861743860       10.9363698384        0.4955562818
 Se        10.2776216752       12.4721709671        8.2044648891
 Se        13.3116489706       11.6890630016       11.4842814535
 Se         7.8380818502       12.5159034948       15.3922637125
 Se        15.3323987740        9.3519361015        2.7257461807
 Se        14.6531523479       10.4552639664        7.5086911989
 Se        17.0352032382       13.2707745887       10.5329760359
 Se        12.4464404960       10.6123235973       15.9811386908
 Se        17.9461168312        7.5633391191        7.3507678676
 Se        10.5874126171       17.5823438511        8.6747062965
 Se        13.9263511313       16.0139033486       12.0693069984
 Se        14.0423959267       13.4551970699        3.9430881061
 Se        13.2264013949       14.8616709443        8.0196893741
 Se        17.4951762567       12.3820009563        4.7513773577
 Cd         6.1603372112        5.3586459354        5.9690343380
 Cd         9.5722485840        6.6701300555        8.6288412098
 Cd         3.6373829445        8.3949288934       10.9920132511
 Cd         8.0305279863        6.4566236807       16.4504844465
 Cd        12.8288656463        4.3604207441        7.3740845635
 Cd         7.7375061478        3.7262455330        8.6039307306
 Cd         5.2762616391       11.0910301884        7.7317895780
 Cd         6.4655114996       13.7951036932        7.2247543953
 Cd         6.7196384568        8.6944949754       10.8276735426
 Cd        10.2583462737        8.9523082159       18.5843429577
 Cd         9.6419491275        8.1065816226        4.2822117733
 Cd        12.8556983836        8.6698875047        6.4375322801
 Cd         9.9990129090        7.6587825216       12.2712151538
 Cd        13.3376736882        8.2346375684       14.9224509974
 Cd        15.7321850555        6.2278460957        7.3537460782
 Cd        13.3551975948        7.4154342691       10.6353576041
 Cd         9.7753507588       15.0672914615        8.6592045923
 Cd         9.3942202483       13.7205382843       13.8859770577
 Cd         6.7941342275       16.8901610695       15.0735450911
 Cd         8.3061546082       15.0280309130        1.8013047650
 Cd        13.0475078535       12.2570151891        8.2563799424
 Cd        11.0461816300       10.8070952517       10.1638943954
 Cd        11.8171202304       11.2370551325       13.6381876888
 Cd        12.7134747686        9.3589971235        2.2991587093
 Cd        15.2128614289       10.9953964707        4.7558341559
 Cd        14.9422330201       14.4821678297       10.0113748519
 Cd        16.5877949856       10.9071665750       11.6258921886
 Cd        18.1689815274        7.6052574992       10.0732128428
 Cd        12.2905383357       15.1082305506        2.7932622381
 Cd        12.1181613060       17.1060550751       10.5823744125
 Cd        14.8831095404       14.5977746889        5.9774485279
 Cd        12.1758336065       14.2179690195       12.0172839143
 Cd        19.3512130581       11.3598381803        5.9978405240
