417
 i =     8400, time =    16800.000, E =     -8967.2347756345
  O        14.3841093756        2.1735293840        8.6227034918
  O        15.6363272108        0.3106321991        4.8027806471
  O        10.1023458393       17.2382071191       16.9166449838
  O         5.8740779381       11.0155038457        0.2995610696
  O         2.7777080285        6.1113179956       10.4297444645
  O         1.7651653863        4.6485913603       12.5621755057
  O        16.7007596915        6.4295548668        2.2164635489
  O         5.1748647026       15.9575615019       14.0402875593
  O        15.2486399978       19.2143186718       15.7428223595
  O        13.1876280881        2.4597826759        5.8724897732
  O        11.6460783356        2.4022875424        0.8233182910
  O        12.8844629529       19.3530969343        4.8190177767
  O        11.6452417243        7.4720451848        1.3825532786
  O         5.0883786918       18.8055342266       -1.3503582855
  O         6.3658311246        3.8973903042        4.3060509350
  O         2.8230398979        2.0176701891        5.6343754974
  O        19.4631905694       16.1000240041        3.3591521508
  O        14.3208424095       19.5742319911       12.3284146642
  O        18.2434317205       21.1241377389        3.2662208162
  O         6.7361821132        5.3724211319       15.3204751157
  O         2.0095328354       18.0310612388       10.7052239394
  O        16.6618689875        2.6624123383        9.4282502786
  O        19.2727451954       11.4689032348        7.7041115906
  O         2.9408490517        3.0306570674        0.4531258144
  O         5.5915399146        9.3538381904       17.6748105777
  O        17.4501110493       13.8899794296        1.1792605038
  O         3.1878285865       10.3799429952        6.6085399004
  O        18.2688640668       19.8111987057        5.4901655723
  O         0.5795580931        8.4416704058       12.7557580197
  O        17.7853104783       12.6504022727       18.0897218141
  O        15.5331807865       16.6092144532       15.9616056435
  O         4.4893532013        6.4669076501        4.9007907492
  O        12.8241730350       19.6717384392        7.4746339952
  O         3.8571330084       19.5513807786       11.6035555704
  O         6.7882960526        8.6279896131        0.5481508227
  O         3.9419592906       19.3622607861        4.3181562326
  O         0.5946799268       11.2077083859       12.6014556961
  O         9.5356355975       19.0683406982        4.3005138631
  O        12.7951855720       19.9388439899        2.2293089208
  O        18.7069986008        6.8434172391       14.3840531494
  O        10.0500754501        6.2583771134        3.4123902957
  O         2.3463428088        7.0108214441        6.3229570368
  O         9.7753656238       20.0464264369        0.4976224768
  O         2.7075472961       19.0650883812       -0.0737846988
  O         0.9125405711       14.6327506823        6.2033934534
  O        19.7646434513        8.1459280148       -0.7133360292
  O         3.2306580941        9.2848571497       16.7974286321
  O         2.7346152516        4.5269806313        5.3496100085
  O         2.9303597394       15.0830747665       12.9480484338
  O         3.3826381777       19.3312620478       15.9744870762
  O         2.0014813918       10.9387741421       15.0200386214
  O        17.6176414045        4.4846289366       15.8550352750
  O        18.8070138488        5.6217043176       -0.8484906792
  O         4.8340122775       13.4228694429       19.5176022382
  O         3.0365352851       16.6832154800       16.6093543758
  O         8.0566978302        5.1215741296       18.3044409046
  O        17.0756915976       17.2781742527        8.8709914721
  O         6.7993475323        6.9152269728        2.4897665679
  O        18.9647640835       17.2131018893        0.8339127681
  O         8.2284088150       18.5982748773       18.1717913204
  O        16.5037203819       11.4961857445       13.8483911037
  O        19.0916455746       16.8565523994        7.2327136027
  O        19.7914152465        3.0768442105        5.3600310856
  O        13.2962168586        2.6948310784       11.9167365385
  O         5.1179304423       18.5335944389        1.1833250804
  O         7.5497202449       16.2404250156       16.9105672284
  O         3.0252182843       17.5053145522       14.0880686563
  O         8.1363800851       10.4411350387       18.3198077833
  O        13.8300607990       14.4451704794       15.6095864580
  O         6.0125029376        1.7531996805       11.3439518657
  O        11.9317128832       16.0546083200       15.5104400023
  O         9.8531935750        3.2559546805       -0.8922446403
  O        15.4262439026       11.3712984020       18.7006658903
  O        19.0251028621        5.4879793320        3.3201957813
  O        10.2946297582        5.2521807160        0.7974175381
  O        19.4855098898       20.0053738996       13.0355928465
  O        18.6612376609       15.0631919546       18.4516324594
  O         6.0476564753        1.3063782375        4.9375115647
  O        13.9202119325        1.4275347824       17.1796859737
  O        16.0951873694       18.8295750408        0.6130683420
  O         7.9613506480        9.3307171179        2.9592586112
  O         6.2388358555       18.3962194618        3.7512845553
  O        16.6250072561        4.6279164598        4.0849675403
  O        18.8830034856       11.9730555723       14.8998100505
  O        11.4866130855       13.8908245687       16.8792568729
  O         4.6510542315       12.4620670119       16.8972557559
  O        19.9685562094        2.2877321923        1.4261273894
  O        13.2990247028       17.2897093263       -0.7320279355
  O         1.6600855072        3.8175023152       10.1199380283
  O        20.0695491165       10.4731837209        0.4689391400
  O         7.1540055369       18.8858139214       14.2841605088
  O         1.4036435091       13.3371777633       14.0757434461
  O         4.1215624130        4.4683639895       17.8994217964
  O         1.1680621090        8.3097018090       15.4092882909
  O         6.4600622570       16.3662724429        2.0782523948
  O        14.5209977724        5.8924708103       19.1422855587
  O         2.5721592168        3.4996764870       14.6925188464
  O        18.1549168519        2.6702564724       13.9272582020
  O        19.9133188560       14.8401937208        8.9246603867
  O         4.4502827035       17.8930691766        9.3951376123
  O         0.9989956456       18.1935477953       15.4415739232
  O        17.7405423762       10.0403539783       18.6003096543
  O        16.4323635331       14.1124908836       15.7839941909
  O         5.4792553364        3.2756043572        0.4073516303
  O        19.3135673027       17.5399856563       17.7136483622
  O        17.7047984811       18.1994479878       15.7812204429
  O         1.6314228311       15.9776987792       -0.4984137023
  O         9.7087324911        0.8915986947       14.1556372769
  O         4.2446020049       16.9756604019       11.6760171486
  O        18.2790342527        9.4505980819       14.5507857922
  O        20.0231812743       10.1743604642       17.1093134796
  O        14.9391028770       18.9660543487        9.0264076669
  O        18.5045687796        9.9330236682       10.8527993291
  O         7.4240128478        2.1501576861       14.3834410950
  O        16.0056711178       17.8844679901       13.6629701002
  O         4.1881162267        5.8140980433        0.7949669904
  O         3.5000734368        2.5661467491       12.3504554751
  O         7.8938223200        1.2412595358        9.3928794493
  O         3.3966944896       14.4155797342       17.7401420615
  O         5.9103211699       20.3318097181       16.2260458158
  O        15.1595588086       16.3626407886        1.0046981859
  O        16.9163759547       15.3299722331        6.8575752534
  O        10.9082450584        2.1625395151        3.4711790354
  O         2.2722587753       16.4123952815        7.6026108897
  O         3.7056843156        9.2938081569        3.9844694612
  O         2.9425941426       14.2244587908        3.0254725834
  O        13.1848538673       14.7497622381        0.5491845017
  O         1.9761724982        5.9679789127       18.4370771346
  O        12.1816269082       17.3882462251        3.2319076702
  O         3.4723916074        8.9420700586        0.1488417086
  O         4.4557416651        4.8425840958       13.2147802033
  O         2.2491163094        1.3935448770        9.1749973533
  O        16.1139141749        4.2144328734       13.6158360465
  O         7.3337829284        1.3873008848       -0.1123347575
  O         9.0899779471       16.2497394080       -0.1826255995
  O         4.7643176044       12.2153422524        2.4220825166
  O        16.7698248764       17.9729430474        6.4534860234
  O         5.5520673965       18.5114544616        6.3830238289
  O        15.8874537644        3.8046611197        7.1161429118
  O        12.1649260889       20.9183597753       15.1387642571
  O         7.8294162167       18.5642999931        1.5009349796
  O        19.6436582929       15.4715908836       12.8296759116
  O        16.5832971654        1.1958920385        7.2186980360
  O        18.3577793780        2.1794594257       11.2870590488
  O         1.9575379125        4.4159687709        2.4223456007
  O         2.0236723445       11.9835588405        2.0365410861
  O         1.7645758786        9.8036051115       10.6965722027
  O         2.1390235555        6.5894100380        3.6389539429
  O        11.4664626342        1.3485424459       17.8051167552
  O         5.1195162035        1.1757938149       13.7437531338
  O         8.0487739848        3.6386055058        1.1716266901
  O        11.6284779697       13.6405726730       14.2390052923
  O         7.3940134800       -0.7185362195       11.1049845836
  O        19.1747512419        2.3521287765        8.7073055200
  O         4.3906986813        7.0521598493       17.7583426161
  O         6.7540275855        1.8862818932        2.4945862266
  O        11.4739898928       18.3789432780       14.8865318060
  O         4.0800613956        1.9446302814       17.6896898143
  O        11.7502070956       19.8112377812       12.6831337205
  O         9.3611680591       16.5678400195       14.4654241616
  O         2.7174513103        1.9026489474        2.9038588462
  O         4.1151121500       16.6700219622       -0.3246898145
  O        19.0387917042       18.7567489019        2.8819719915
  O         7.2746961002       12.9637309340        1.4291603623
  O        17.7003837025        3.8514417243        1.6002671701
  O        15.3038450797        1.9214890165        0.7851235977
  O         1.2679608259       19.7748589741        4.4326331589
  O        20.2836537690        6.7340320403        1.3943110206
  O         8.5639653124        2.2570786820        4.4387982421
  O         9.5579460279        3.5396847937       13.6823864894
  O        21.0525735305       13.3754038972       11.5029143594
  O        13.2601061962        3.1908595612        2.7791737451
  O        14.6481442071       18.3101869667        2.7579923807
  O         2.6722420894       12.0170046887       18.8349110830
  O        17.0194512785       17.0839610059        2.5985564674
  O        17.7026345991       19.5478789492        9.5212067206
  O        14.8218711966       15.0546564769       17.9307298752
  O         8.5509267477        1.5986426651       11.9820078857
  O        14.9191909912        6.9323384204       15.8042418791
  O        16.8196352696       10.8249715918       16.3571522240
  O        16.3497208850       20.6181659640       17.9202559628
  O         1.8378646308        3.6266034477        7.6104959540
  O        16.7086396284       20.3620510995       12.7594872110
  O        15.9766503997        2.4968480498       15.6286518050
  O        10.7535454843        1.2531866502        5.9434238257
  O        12.4107331810        3.7521905835       16.6189748543
  O        16.3768500206       18.2474270752       11.2485171975
  O        17.8603965426        1.4879663244        0.5608887845
  O         1.2578660294        9.9339229082        4.6343518780
  O        19.7605955263       13.0501079711        0.2170578499
  O         3.1975313208       11.8242279141        4.4489505616
  O         9.0832088548        7.6220117500        1.2318665305
  O        19.3533164955        5.8509025324       10.8660160034
  O        12.8072484224       20.0948233319       10.1598619182
  O        19.2554053852       20.1408271353       16.8827290251
 Na        20.1203797427       13.7999106754        2.8126889949
 Na        11.3208506863        4.3351680256        4.2402538876
 Na        14.4984674730        7.9867969787       18.1011247003
 Na         6.2153624979       16.6198424738       10.7843670925
 Na         4.3630717935        8.3351331268        6.1969131638
 Na        17.4607030085       13.8757874007       13.4077419688
 Na         1.6360515707        1.2317139988       11.4334286989
 Na        18.1118245049       13.4887801064        7.7614495992
 Na        17.4467107074       10.5542279596        8.6193266760
 Na         8.0095445926       17.6019202474        5.1069896340
 Na        11.0652631047        4.7830068787       15.1687696705
 Na         1.4395169314        9.8313653932        8.4426465155
 Na         6.3698973906        6.2786510776       -0.1227201755
 Na        10.1816874571       17.7275467887        2.2530987217
 Na        13.4596355187       17.5413008857       16.4686301685
 Na        10.0608436268        0.8739228827        8.5376976603
 Na         7.9878337570        5.1551695065        3.1749687542
 Na        18.5603619413       13.9885853203       16.3996306414
 Na        13.8216083816        3.7071684772       13.8699577342
 Na         5.7312721986       10.3107695020        3.7861299074
 Na        16.5342174484       11.5691901884        1.6549956499
 Na         0.4245132032       12.6544068196        9.9601842378
 Na         6.4901855881       18.6937421177        8.7597689142
 Na        14.2248888015        3.8853347603        0.8330064578
 Na        19.0020665038       16.0758297903       10.5008886459
 Na         4.5062731453       16.6257751567        7.4924111749
 Na        15.9028395740        7.0667358888        4.5064165560
 Na         5.1196442460        6.7251066244       14.3628168375
 Na        12.2328734451        5.9346860444       18.8655810170
 Na        20.0019069472       19.6250666361       -0.1332903482
 Na        13.2722569519       19.7089301210       19.3973265580
 Na        11.7238029362       17.1584392670        5.5093545983
 Na         2.2711306831        5.8138517624        8.1590042716
 Na         8.6687809644        9.7089169079        7.7644792127
 Na        10.3899251660       12.8814133297        5.2763476353
 Na         1.9957465443       12.7669197721        6.6867651535
 Na         3.8439667664       13.9886003713       15.2059115968
 Na         7.5410011796       12.3751250666       10.8369420026
 Na        16.8079987496        5.8655727970        0.2571101512
 Na        20.4363163275       18.6856938565        8.3635271557
 Na        20.4851289475        5.3246732919       15.3414772830
 Na         4.3809582885       15.4287112370        1.8083157524
 Na        11.2265842339       15.6102893209       -0.8930292720
 Na         2.5849845187       15.2005532692        9.7629815148
 Na         1.1996670898        1.6779299673       15.2667499621
 Na        15.4094556931        1.6279092751        3.0217757418
 Na        18.5586833100        4.8550003270       12.8557494397
 Na        13.6444554911       12.6774387832       18.7988005648
 Na         4.7374989653        4.7793618026        2.9662205776
 Na        14.8633673110        3.6819522074        4.8641460565
 Na        15.8985274822       14.7901469976        2.5965433397
 Na        15.9712864150        6.6624867154       13.8601527429
 Na        14.5823106523        5.0067958569       17.0462578549
 Na        19.9234203992        7.9594036479        5.3256200020
 Na         4.6788331865        3.8452062681       15.7335201492
 Na        20.2609567718       17.7652532683       12.9153360348
 Na         3.2153839501       11.6087587262       11.2385619478
 Na        17.3616205334        6.7636956006       16.3384402986
 Na         7.2349811396        4.5561205603       13.2625405876
 Na        18.4279084608        3.4933523669       17.8943597816
 Na         4.0511054703        1.1409951742        7.9380794900
 Na         7.8761390256        3.4409740796       16.3406394488
 Na        11.3720860077        4.1037382773       11.2668466678
 Na         4.9093467661        4.7868012209       10.9758816841
 Na         6.5066920871       14.2004013603       17.6962109637
 Na         8.9634858357       18.1171984597       12.7819352875
 Na         5.5438643528       10.6770179479       15.7765212164
 Na         9.8947257897       12.3860208353       17.6280954551
 Na        13.8668884856        7.0085927348        1.7536464686
 Na         9.2368537410        9.9814794467       15.3426950804
 Na         4.4669978203        7.5199822185        2.2577189654
 Na         1.9705855865        9.1185280337        2.1462264961
 Na        18.2840146689       15.0365054908        5.0223548056
 Na         8.7358153071       11.4425549258        2.5251842674
 Na        14.7466740874       12.0982902672       15.2146441471
 Na        15.3791320523        3.4634024395       11.1341136383
 Na         1.8958950781       16.3111449636        4.8763538649
 Na        17.9145096164        3.9841908850        5.9529879269
 Si        15.8098924649       19.0493533970       12.5126657165
 Si         8.7337464309       17.0178750110       17.7960723592
 Si        18.2642204773        1.5052966690       12.7746653887
 Si        10.3277745526        6.6194889711        1.8050796090
 Si        10.6074191618        1.8827288164       -0.3135062265
 Si         2.9236760137        6.1902184187        5.1247758395
 Si        19.9489937171        6.5584500233       -0.2482573484
 Si         7.6631085527        8.1540517604        1.9108814235
 Si         2.6533689740       17.9521936679       15.5909506807
 Si         3.6144412422        5.9022428079       -0.6823962217
 Si        19.1638333096       18.6226925293       16.4469265905
 Si        16.7024856563       19.5531797257        5.9105983630
 Si        16.8463800875       11.2740098924       18.0258094030
 Si        18.3694559040        2.4387056236        1.7751163716
 Si        20.2843121464       15.6126920285        7.5594964255
 Si        19.4743392506       16.4646492436       -0.4988829571
 Si         9.0762171959        4.3661561821       -0.0251098604
 Si        19.3652083053        8.2364546280       14.2402717762
 Si         4.1135712263       18.3226641580       -0.0994240762
 Si        15.2813183557       15.0184428593       16.3419784769
 Si        15.7701630038       17.6663015384        1.7704403037
 Si        17.6179647187       10.9403123832       14.9186206152
 Si         3.9124700109       16.4117689470       13.2255325441
 Si        20.4674898680        5.7646476259        2.7298257012
 Si        15.9036305437        2.4619291069        7.9364386439
 Si         6.8494321168        2.5051426669        0.9754369872
 Si         1.5011488545        5.2156648034       11.0205660486
 Si        12.4421838213        1.1134023465        5.9883756773
 Si        18.0462087201        1.8325206162        9.6904724023
 Si        19.3755303318        9.7429231043       18.5527075909
 Si         9.8758520204        1.2260157522        4.4793604952
 Si        14.0800761997       15.9608248092       -0.2236405041
 Si         1.8365854441        9.6503559074       16.1267376950
 Si         7.4185707954        0.9008973912       10.9637894053
 Si        16.4365374695       18.5555061425        9.6159106159
 Si        19.8550931481        9.7892880938       11.7022714744
 Si        13.7344789225       20.0481357793        8.8043353467
 Si         2.8749731688       10.2766072081        4.9435702013
 Si         4.1945001909        3.1558549629       -0.5435623139
 Si        16.1882971838       17.9592407506       15.2709356909
 Si         5.7475909607       12.4391465940        1.1082640434
 Si        15.4783451918       20.6586165798       16.5754959483
 Si         4.6299956754        1.4418340341       12.2497073188
 Si         3.0136403377       15.9910198778       18.0465338783
 Si         2.7212477763        1.0442785224        4.3016350807
 Si        12.5108647185        2.1271839625       16.7057240228
 Si        10.6270602210       17.0280762630       15.3777367438
 Si        17.4537078375       16.8434964701        7.3533884253
 Si        18.3188227709       13.6888476684       -0.1081145200
 Si         8.8301206597        2.1277501581       13.4936524943
 Si        17.4375230511        5.1758998049        2.7942462801
 Si         6.4003831153       20.2177079927       14.6615657969
 Si        11.2475008221       19.8822980925       14.2490068228
 Si         6.8895543522        2.3835847902        4.0829617538
 Si         3.5975707275       18.2180629406       10.6970952309
 Si         8.3006526066       19.4020368915        0.1885192030
 Si        13.0339048285       20.4612199884       11.8061147465
 Si         5.4804755931       19.2014801955        4.9824875682
 Si         0.9255551126       11.7641458786       14.0691581831
 Si         1.4526381486       14.3665108219       12.7361878284
 Si         3.2747889656       12.6340863201        3.0510377667
 Si        13.1578727767       18.6813831976        3.2984087474
 Si        16.9877917475        3.5473935863       14.7267454523
 Si         4.5793473809       19.9135676829       17.0138243162
 Si         1.4531757769        2.7085118702        8.8639381781
 Si         4.1160082291        8.6444301436       18.1161910524
 Si         6.3374165626       17.9521944432        2.1393209989
 Si         2.0565029729        2.9164558753        1.8048870762
 Si         1.5033881304       11.8877139624        0.5313680805
 Si        16.3306330129        0.9702717070        0.1520035039
 Si        18.6988532064       17.2032575924        2.5065350445
 Si        12.2020486847       14.4031091044       15.6112663623
 Si         3.0931947320        3.9544962114       13.2898882622
 Si         6.6867671588        9.9312825258       -0.5267106990
 Si         1.8013374741        3.3110176940        5.9357799609
 Si        12.1605540160        2.1225051438        2.3922300666
 Si        19.0573536684       19.9280688122        4.0978687925
 Si         3.8763071465       12.9032906792       18.1817729937
 Se         4.8823833187        9.2633418058       12.9774831421
 Se         7.9094846681        6.9851990510        6.6011084837
 Se         5.1336521937        3.7399454809        8.2519835734
 Se         8.1129260664        6.3044816619       11.0749105427
 Se        10.2721866319        3.7443532503        8.5978143559
 Se        13.9386768679        5.2987077340        9.6630448957
 Se         4.7689303127       13.0827074677        9.2319223282
 Se         6.9481934746       11.0827723954        6.1220347758
 Se         5.3577304549        8.4819254793        9.0451721116
 Se         9.2908513661       10.2843172180       12.1863281545
 Se        11.0522695734       10.0568692824        4.9595457041
 Se        11.2660348475        8.3222595428        8.9317485515
 Se        12.2101364999        6.5481576769       12.9520988410
 Se        10.1678915862        7.7184255577       16.7023376620
 Se        13.4639646716        6.3515631035        5.7239150925
 Se        15.8120914329        8.2863733105       11.6160060829
 Se         9.9246783897       14.9071649058        3.4905793825
 Se         7.0662205674       15.6486890594        7.2294630018
 Se         9.1246685591       14.7608473415       11.4232746421
 Se        11.2725969745       11.0093708945        0.6080339134
 Se        10.1525500043       12.4899398246        8.3818381610
 Se        13.1709557278       11.6901438555       11.5487315371
 Se         7.7371201018       12.7233545528       15.5747995195
 Se        14.9876542925        9.4676458935        3.0296774536
 Se        14.4266250291       10.5263553460        7.6917615706
 Se        16.8340171503       13.2334792251       10.4165464881
 Se        12.6479470935       10.3221115783       15.9622705693
 Se        17.8567747120        7.3814108345        7.5892928992
 Se        10.1569166100       17.5613453724        7.9735406723
 Se        13.1579830906       16.2984335723       11.8192710553
 Se        13.7904094690       13.4038334873        4.1393593598
 Se        13.3814109239       15.2216753289        8.0999171889
 Se        17.3700397115       12.5044985527        4.3869294758
 Cd         5.8594494575        5.2266214970        6.2325345928
 Cd         9.5505233359        6.2734674623        8.5961313232
 Cd         3.4130780164        8.1652923443       10.8815977671
 Cd         8.0893788234        6.4974332865       16.3289115434
 Cd        12.7254094572        4.0256423172        7.5431662484
 Cd         7.6917612385        3.3409895047        8.5890746107
 Cd         4.9839170825       10.8241689728        7.9291954314
 Cd         6.1547319357       13.2919698634        6.9803453861
 Cd         6.7320860734        8.6001169729       11.2713699499
 Cd         9.8852492008        9.1856870463       18.8369636801
 Cd         9.1316585212        8.0388454760        4.4410647647
 Cd        12.5794221176        8.7184451096        6.5894286631
 Cd         9.9889241363        7.6919067936       12.2873615520
 Cd        13.4146535330        8.1122024593       14.9932052373
 Cd        15.3980858773        6.2269903399        7.6135563410
 Cd        13.3936892310        7.6399515198       10.6163325267
 Cd         9.2233998815       14.8778817419        8.5669605874
 Cd         9.2022785657       14.1143091745       14.1608346194
 Cd         6.8925156867       16.8812078896       15.0551236229
 Cd         8.2683836553       15.0250266106        1.4919447145
 Cd        12.7698959230       12.7133839913        8.1501922183
 Cd        11.1309619208       10.6396615379       10.2840856829
 Cd        11.8438975992       11.1951415900       13.7758560409
 Cd        12.3323250514        9.6071215672        2.5871784038
 Cd        15.1956490036       11.1499952694        5.2124701666
 Cd        14.7090826817       14.5922053998       10.3622827572
 Cd        16.6110290116       10.8035560129       11.7639930694
 Cd        17.9276148092        7.4902544813       10.2560215987
 Cd        12.3452431864       15.1197785912        2.5889317594
 Cd        11.9096784764       17.0768024238        9.7616161636
 Cd        14.9927280182       14.6165310510        6.0843909647
 Cd        11.7167295197       14.1380307594       11.8230483743
 Cd        19.0141992414       11.0418097187        5.6035790423
