417
 i =     7300, time =    14600.000, E =     -8967.2535909364
  O        14.5861461479        2.1080200585        8.7561250730
  O        16.1054485235        1.0881567177        5.0139630603
  O         9.7017901674       17.2102811990       17.0607364492
  O         6.1836346309       11.1652810834        0.5505150889
  O         2.7559376279        6.3135559980       10.6278161204
  O         1.7753292811        4.7652760053       12.4361612388
  O        16.8660486675        6.1467221550        2.6679506948
  O         5.0988671845       15.8105505660       14.6331491456
  O        15.6180296205       19.3550506160       15.7616473905
  O        13.1442812066        2.6716356641        6.2849654646
  O        11.7983589308        2.2149783387        0.9534166940
  O        13.2888600816       19.6710986191        4.9436255341
  O        12.0841085840        7.2072354979        1.6495733250
  O         5.0107447386       18.9870749558       -0.9379074275
  O         6.8362157579        3.9496180242        4.5609740812
  O         3.0414335361        2.1471799366        5.6483656123
  O        19.4019954508       15.6150420272        3.1822616508
  O        14.6140250019       19.2916859392       12.3106795689
  O        18.6747017455       20.5925584918        3.1810112959
  O         6.5139737802        5.3185178606       15.5343043233
  O         2.2286188210       17.6604058271       11.1162890822
  O        16.8153617745        2.8362204869        9.8090199076
  O        19.6706184697       11.7435057172        7.9066145257
  O         3.0944709782        2.9341179638        0.4824811836
  O         5.7518286696        9.5754618518       17.9743220866
  O        17.4870811022       13.3406779579        1.3343085750
  O         3.2626023270       10.5223610140        6.6528030140
  O        18.6589339223       19.9331906121        5.7591053978
  O         0.7586119888        8.6256715028       12.7066393071
  O        18.1565228614       12.6351388852       18.1769864934
  O        15.5253719307       16.7153626632       16.0555318218
  O         4.6952807302        6.3534005320        4.6709656752
  O        13.2365065599       19.5920849152        7.6362372072
  O         4.0304339533       19.6059955985       11.5406943751
  O         7.2713565055        8.6645085294        0.4857180287
  O         4.0742761724       19.3350983332        4.4818206482
  O         0.7805280174       11.3770236004       12.8379287479
  O         9.5985628225       18.8135517959        4.4213575233
  O        12.6571542290       19.6738284970        2.3336075223
  O        18.7938924877        6.9633507797       14.3595128805
  O        10.2779139148        6.1725018519        3.3883024600
  O         2.7591823312        7.0555934649        6.4670625782
  O        10.0079268259       19.8024433952        0.4113755016
  O         2.8654084368       19.1110730214        0.6111883718
  O         0.8370656739       14.6762574600        6.0638507549
  O        19.6569831276        8.1292294808       -0.4149875544
  O         3.3613394502        9.2900641669       16.9964277803
  O         2.8309163231        4.6527675691        5.2369761137
  O         2.6617313303       15.6979085206       13.6888633985
  O         3.3285265219       19.7271784915       16.5175413374
  O         2.2432583817       10.9570979119       15.1174830654
  O        17.9542585491        4.3481157232       16.1909170971
  O        18.9173239663        5.5570461415       -0.4732215107
  O         4.9358872638       13.4239522568       19.6030101400
  O         3.1056600300       17.1803996862       17.2143256527
  O         8.2180453433        5.0452204520       18.4909209959
  O        17.5424597780       17.3250182148        8.9060273493
  O         7.2089525221        6.9324159015        2.4552230857
  O        19.0276493276       17.3740146045        1.1374118007
  O         8.0411756060       18.7038630215       18.4083808427
  O        16.8789274939       11.5874831666       13.8771178755
  O        19.1945948468       17.0523150163        6.9406260211
  O        20.0664314355        2.9647393436        4.9741131363
  O        13.5605710170        2.3876719906       12.5026118777
  O         5.4037827545       18.6614675015        1.5702021674
  O         7.2498630370       16.1614927726       17.3966251051
  O         3.5062769273       17.9596663265       14.6068412353
  O         8.3365302394       10.5105240606       18.3989522768
  O        13.7463240946       14.7412890075       15.8351288885
  O         6.1164798637        1.8203525290       11.2871488509
  O        11.5849289036       16.0168458742       15.8312804793
  O         9.7752886979        2.9974952772       -0.5218351403
  O        15.7099813504       11.5004314163       18.7285986632
  O        19.3272331962        5.6584015906        3.6685280475
  O        10.2853829449        5.3366622307        0.8515279496
  O        19.7446757678       19.8950990967       13.1307035238
  O        18.6086112909       15.1006863325       18.8941376526
  O         5.9899396042        1.5460216737        5.2393752286
  O        14.0633564507        1.5274142665       17.3718534089
  O        16.5364352637       18.8126626599        0.8847121690
  O         8.0008066239        9.4648499028        3.0270908064
  O         6.5113981742       18.6362367571        3.9904336806
  O        17.1048826019        4.8817028276        4.9131163249
  O        19.1712907341       12.0260664122       15.2177515747
  O        11.5666405987       13.7513675505       17.2509556838
  O         4.6075373425       12.7457262146       16.9866290050
  O        20.2108833702        2.3372196577        1.5051646308
  O        13.3123331517       17.3705791105       -0.8195671180
  O         1.7695080721        3.9298718721       10.0000564162
  O        20.3543072876       10.5330281837        0.4336859149
  O         6.9756195312       18.4464444535       14.1444431602
  O         1.6489699452       13.5181527521       14.4373754981
  O         4.1509778564        4.6036111939       18.2499605190
  O         1.4436586588        8.4747683199       15.2373357210
  O         6.6024514541       16.4745997441        2.7442240268
  O        14.6253367466        5.3312770578       19.3047237058
  O         2.6179840909        3.7071806982       14.6180055536
  O        18.3224959851        2.6072118874       14.2309060495
  O        20.1349457725       15.1831803143        8.6670182987
  O         4.6245203451       17.5149557107        9.7587102917
  O         1.2248465155       18.1021267067       15.7312689033
  O        17.9575319320       10.0642465229       18.6345761500
  O        16.4043345414       14.2169464042       15.8430069771
  O         5.7153777176        3.2565755525        0.7104381254
  O        19.2496188925       17.5625741233       17.9372586500
  O        17.9285371035       18.1314492888       15.8513708463
  O         1.7145044191       16.3836964545       -0.1440967032
  O        10.2333006355        1.3316501696       14.3605160809
  O         4.5502447679       17.0803350474       12.3265148901
  O        18.4062858849        9.5132044395       14.6339085746
  O        20.1452293722       10.1422752034       17.1611340629
  O        15.3516346936       19.1048023476        9.1638327185
  O        18.6438855497        9.9137463652       11.0766533282
  O         7.5546209117        1.7702684166       14.5290551960
  O        16.4110665456       17.8029352671       13.8077584338
  O         4.3257283936        5.9677799102        1.0410756456
  O         3.6258702464        2.6194623697       12.3778433702
  O         7.9228203266        1.2072037064        9.5329336027
  O         3.3926686507       14.7574698490       17.9899431236
  O         6.0064116941       19.9377668893       16.1981576802
  O        15.0652183321       16.6716106971        1.0578231286
  O        16.9617736244       15.5714745684        7.1021952057
  O        10.6727110163        1.8154828100        3.5383049981
  O         2.2960351225       16.7376801592        7.0147792167
  O         3.8539151518        9.4649089818        4.2312982871
  O         3.2740781541       14.2647735218        3.2609642368
  O        13.0241115056       15.1586952331        0.6262015220
  O         2.1774914452        6.4514653955       18.5767688665
  O        12.5752117394       17.3158950187        3.8253798984
  O         3.5900100273        8.9997876844        0.3599229651
  O         4.4407354782        5.0584279240       13.1793997417
  O         2.1868088409        1.4373577100        8.8165837284
  O        16.3121154882        4.3166535495       13.8678284993
  O         7.5031404874        1.4647257080        0.2585130445
  O         8.9848182703       16.3872436650        0.1144124887
  O         5.0849568874       12.3060198927        2.6591262195
  O        16.7857495069       18.2334450685        6.4911805687
  O         5.5916214471       18.7423613169        6.6732690821
  O        16.2225344444        3.8948917793        7.4551278540
  O        12.3924464481       20.2696324380       15.3656109639
  O         8.0647371762       18.7104325752        1.8521447162
  O        19.4438049333       15.4305011103       13.1641956699
  O        16.8724467047        1.2930103651        7.5710063703
  O        18.7010743308        2.3140674609       11.5606501464
  O         2.1429217716        4.5069126592        2.5080489148
  O         2.5297907954       11.9280027721        1.9638063646
  O         1.9669947271       10.1743801317       10.7926540588
  O         2.3160053555        6.7904837659        3.7796359911
  O        11.6139533231        1.3372419677       17.8426072163
  O         5.1465188922        1.0523715633       13.7645631517
  O         8.2203219471        3.6362680632        1.3993926980
  O        11.6438198864       13.7275174619       14.4479440878
  O         7.1616505314       -0.7183608413       11.1397722175
  O        19.1457193758        2.5083744385        8.7500376513
  O         4.6342867067        7.1967680829       17.9774888880
  O         6.8692908832        2.0703850204        2.8459018825
  O        10.9082468165       18.2073570369       14.6883187415
  O         4.9383170038        2.2484973020       17.8361951160
  O        12.0063732900       19.5530308224       12.6816751632
  O         9.1912294956       16.2368482835       14.5222901623
  O         2.9904548046        2.1472081996        2.9976101999
  O         4.1932365595       16.7654685425        0.2074250584
  O        19.0533180066       18.1125692584        3.8770285101
  O         7.2666660224       13.4052014429        1.4816843471
  O        17.8488655444        3.6528420686        2.5227782550
  O        14.9934089831        1.5715744728        0.8153233435
  O         1.6119640519       19.6005258189        4.4598787653
  O        20.5667065833        6.7863111058        1.5146519236
  O         8.6265607153        1.9367000284        5.1228279805
  O         9.3620996373        3.6213484691       13.5886466186
  O        21.3709183460       14.0256317068       11.7215059145
  O        13.0742163449        2.9472858637        3.0039570480
  O        14.8698248545       18.5153941608        3.1064105847
  O         2.5948346947       12.3456065701       18.6956986343
  O        17.0014057299       16.9999351087        2.7687822430
  O        17.9536908574       19.7553997197        9.9443224667
  O        14.9783037696       15.2092694388       18.1472356657
  O         8.6742809831        1.3340083302       12.2435285735
  O        15.0239656515        7.0704522459       16.1210939141
  O        16.9433703021       10.9782127892       16.3970434145
  O        16.4974931784       20.2496122560       18.0351463792
  O         1.7447128757        3.7252052435        7.3854693792
  O        16.9326077830       20.1726910758       12.8545133328
  O        15.9325732242        2.5658866542       15.8017359950
  O        10.9828726608        1.0548363983        6.1318814288
  O        12.6626052235        3.5321071039       16.3384238489
  O        16.6336157509       17.9239105152       11.2110856685
  O        17.7817335260        1.7583334745        0.7564699940
  O         1.3360632099        9.9080092377        4.7640988508
  O        19.9503346549       13.1371432614        0.7307211203
  O         3.0773577627       12.1273046882        4.5290862439
  O         9.4919024179        7.8780336286        1.4524241778
  O        19.4359984547        5.9863398060       10.6800710877
  O        13.1139560957       20.0611948885       10.3530668802
  O        19.4303358944       20.1521003703       16.9964146556
 Na        19.7962442058       13.4399988475        3.0280903249
 Na        11.8230011154        4.5309491435        4.2832397177
 Na        15.2512353234        9.2146348874       17.5031131366
 Na         6.2235339786       16.2453248302       10.8792884307
 Na         4.7845835552        8.3551878633        6.1683843743
 Na        17.2457746244       14.3021705139       13.3011302647
 Na         1.7147616774        0.7272528655       11.0399061854
 Na        18.2597771449       13.6465361421        7.8897579893
 Na        17.8050577063       10.7338716790        8.8005985204
 Na         8.1891695640       17.0347447622        5.0086131291
 Na        10.6835544681        4.7220393130       15.1448683962
 Na         1.9077351380       10.2515069784        8.5468416404
 Na         6.5397705013        6.2392159880        0.2804369632
 Na        10.2250762780       18.2315490508        2.2670987459
 Na        13.3977710244       17.8831199143       16.5541683542
 Na        10.3869928773        0.9773429293        8.5762207078
 Na         8.2217209314        5.1850587624        3.5572278152
 Na        18.8468060245       14.1823608431       16.3124270309
 Na        13.9091120623        3.7857825230       14.3433473860
 Na         5.9312159261       10.5182238120        3.8412851691
 Na        15.9409982100       11.5175416821        1.6156773098
 Na         1.0250622738       13.0069386854        9.6421558645
 Na         6.5227336345       18.6225495661        8.8015484810
 Na        13.6245809500        3.3261283335        0.4815603328
 Na        19.3637562381       16.3998987114       10.4931933630
 Na         4.3051918612       17.0419829914        7.4707257679
 Na        16.2153669737        7.2776926980        4.6255295588
 Na         5.1065060205        6.8694216987       14.4582063739
 Na        12.8555428040        6.5991326007       18.9687808358
 Na        20.1754772458       19.5875832299        0.1265200865
 Na        13.2608458325       19.4134222806       19.4005154351
 Na        11.2621899448       16.8414928574        5.6218794092
 Na         2.9344027711        5.8493929465        8.3489114467
 Na         8.4854918995       10.0708174244        7.8138100249
 Na        11.2450945614       12.8730149679        5.6325940706
 Na         2.3040892705       13.0690692188        6.5301984997
 Na         3.6607919070       14.2180068925       15.5629334533
 Na         7.5424989052       12.3860949829       10.8491041086
 Na        16.7676386706        5.6275654735        0.5132420864
 Na        20.4902076458       18.8929594622        7.2105401087
 Na        19.9883335488        5.1473706713       14.5231790348
 Na         4.7995009991       15.4614563374        1.7549333413
 Na        11.0296488956       15.7530645075       -0.7179633066
 Na         2.8206198365       15.6787096103        9.9034886486
 Na         1.4901940231        1.6837588701       15.1041755340
 Na        15.2202686274        1.4928142839        3.1539933462
 Na        18.1367722374        5.1254317391       12.2424968201
 Na        13.4174252125       13.0058373992       18.4049192316
 Na         4.9149685778        4.6815130104        2.7757246468
 Na        15.2080464205        3.5829046212        5.4376683448
 Na        16.3116871373       14.6776556008        2.3537858976
 Na        16.2515909449        6.9753083898       14.2570374881
 Na        14.6915004544        5.0510000472       17.1915482239
 Na        19.9757350601        7.5481580325        5.8779505509
 Na         4.4037267264        4.3711002997       15.8283501960
 Na        20.4389846897       17.8581285805       13.4497505756
 Na         3.4195006219       12.2130329178       11.7681751578
 Na        18.0125872548        6.4270445960       16.8500948815
 Na         7.1405314618        4.5437825360       13.5826323841
 Na        18.9246867032        2.8358861680       17.7777400296
 Na         4.3253040922        1.7040745726        7.5280945177
 Na         7.1640366942        3.1015244073       17.2125286481
 Na        10.9713429921        3.3610437238       11.6390732514
 Na         5.0625657305        5.3352455410       11.0673954151
 Na         6.7092509665       14.0204799500       17.8178677907
 Na         8.6662553347       17.8736505034       12.5792689671
 Na         5.0061168612       10.7737380357       16.0337773566
 Na         9.8267725183       12.1897321681       17.6999971632
 Na        14.3218134188        6.0574899256        2.1478814628
 Na         8.8052696315        9.8101190640       15.2941326077
 Na         4.6513622589        7.7101310028        2.7129597167
 Na         2.2504953826        9.1552650466        2.3378465861
 Na        18.3048788082       15.1967162256        5.2139050294
 Na         9.4002901787       11.4561446559        2.4907857296
 Na        15.3343879073       12.2533692029       15.4025850576
 Na        15.4956664483        3.2181043969       11.7575855615
 Na         2.0137076935       15.8332802008        4.4717835114
 Na        18.1678759142        3.3105903038        6.1849460188
 Si        16.1358880599       18.7986808770       12.5649994983
 Si         8.4267378244       17.0889120042       18.0980611314
 Si        18.4971123254        1.4533192405       12.9745758071
 Si        10.5810374612        6.6945269060        1.9145191456
 Si        10.7613886416        1.7519066970       -0.2399151045
 Si         3.1930610200        6.2449582450        5.1557095407
 Si        20.0856155841        6.6270457879       -0.0458101952
 Si         7.9051386449        8.2759368448        1.9819607538
 Si         2.8277288980       18.1992459666       16.0296464876
 Si         3.7674902991        6.1268004647       -0.4732908554
 Si        19.2439982878       18.6139491790       16.6776932571
 Si        16.9712757504       19.8129215553        6.1195234336
 Si        17.1248999053       11.3407458001       18.0547625667
 Si        18.6291650847        2.3020381863        2.0315983538
 Si        20.4056414215       15.8181591325        7.1976881083
 Si        19.5154390283       16.5159614087       -0.1809014199
 Si         9.0976171822        4.4267042557        0.2040748766
 Si        19.5171160539        8.3397445230       14.1971483895
 Si         4.2374936438       18.5020199476        0.4525563012
 Si        15.2435638280       15.1441071471       16.4863381862
 Si        15.7979544999       17.7467611202        1.9392274215
 Si        17.8544581203       11.0093278844       15.0047704228
 Si         4.0121860234       16.6354987986       13.7643739612
 Si        20.6736063396        5.9089572453        2.8652841692
 Si        16.0364705607        2.5727460564        8.2525492248
 Si         7.0309432488        2.5781362851        1.3317325990
 Si         1.4953697039        5.3161499387       10.9548156328
 Si        12.6737913018        1.1662382325        6.2183258493
 Si        18.2044774305        2.0383442914        9.9756043743
 Si        19.5445432051        9.6759408384       18.6559381671
 Si         9.9180021726        0.9181585194        4.7688141908
 Si        14.0463097771       16.1748024611       -0.1218409011
 Si         2.0408213314        9.6801208788       16.1548432933
 Si         7.4242251289        0.8462908551       11.0451636284
 Si        16.8134935159       18.5755313919        9.7765654994
 Si        20.0488823921       10.0245490351       11.8067264987
 Si        14.0409055238       20.0277772811        8.9825230987
 Si         2.8933851017       10.4022181836        5.0782822325
 Si         4.4176779593        3.1923103226       -0.3039591999
 Si        16.3409068042       17.9949151364       15.4430113518
 Si         5.9399657356       12.5684222048        1.2491820451
 Si        15.6087178487       20.6625394269       16.7619309806
 Si         4.7429797378        1.4801448265       12.2532050558
 Si         3.1602212349       16.2604759804       18.5282314841
 Si         2.9664950921        1.1659508299        4.3853105369
 Si        12.6665220148        1.9804817402       16.6293401483
 Si        10.2720699945       16.9098817025       15.5105802633
 Si        17.5803151004       17.0269304676        7.3043864462
 Si        18.4340280151       13.5547599533        0.1276127715
 Si         8.9418770174        2.1003586266       13.6387808124
 Si        17.7165282406        5.0462564463        3.4318758110
 Si         6.4568997690       19.8823026526       14.4895684487
 Si        11.3992481739       19.6781405109       14.2508615630
 Si         7.1699195459        2.3975071188        4.4907071270
 Si         3.8188088332       17.9913033885       11.0235002088
 Si         8.3964641834       19.4864542480        0.3836071986
 Si        13.3445267384       20.2765782549       11.9464242264
 Si         5.6094395568       19.3374877011        5.1888584121
 Si         1.1911689311       11.9873552724       14.3372182360
 Si         1.4899932306       14.6859144157       13.0759495535
 Si         3.5310141188       12.7872913347        3.1074571322
 Si        13.3174584117       18.6744936440        3.5365111354
 Si        17.1603460336        3.5127931973       15.0360084697
 Si         4.8087490792       20.0748115816       17.2496262378
 Si         1.4617356412        2.8813371726        8.7785772191
 Si         4.3006057578        8.8182963930       18.3547449937
 Si         6.5786841727       18.0464162547        2.4775515717
 Si         2.2237570525        3.0023813011        1.8976615819
 Si         1.7288924424       12.0097041494        0.6122593570
 Si        16.3459742668        1.0078740892        0.3672941864
 Si        18.7024062415       16.9771400424        2.7166704166
 Si        12.0988187088       14.4389707373       15.9287894374
 Si         3.1511629504        4.0607097989       13.1572119285
 Si         6.9160483203       10.0227968058       -0.3717122758
 Si         1.9938367682        3.4395012294        5.7730232364
 Si        12.0097826576        1.8768048652        2.6046134099
 Si        19.3751870732       19.6655632525        4.3336625935
 Si         3.9325901765       13.2250973876       18.3149143103
 Se         4.8925598524        9.5015926821       13.1686420873
 Se         7.9360952536        7.2224727902        6.6718167729
 Se         5.5215661509        3.9847350463        8.3946686151
 Se         8.0574598871        6.2960922306       11.3203036007
 Se        10.3522086611        4.0385123257        8.8095156315
 Se        14.2548339619        5.2507369754        9.8087977863
 Se         4.9367673293       13.1101334983        9.5717247043
 Se         6.9446676647       11.5376711017        6.0379711056
 Se         5.2843049978        8.5852436851        9.2265264591
 Se         9.4748944497       10.4182775540       12.3303364423
 Se        11.1635683702        9.9959595425        4.8892701812
 Se        11.3707012465        8.6403336802        9.0852073301
 Se        12.2573091655        6.6782430295       13.4188318339
 Se        10.1879565566        7.7391523017       16.6585570814
 Se        13.6975868820        6.4175923931        5.9552602550
 Se        15.9171524287        8.3122690260       11.6754926573
 Se         9.9327088520       14.7021584790        3.7371993797
 Se         7.4088505870       16.0627594941        7.6349199279
 Se         9.6210989633       14.4747543835       11.5719298529
 Se        11.4690136370       11.1544485159        0.6809100216
 Se        10.2830308923       12.3918004563        8.2724877704
 Se        13.4509677962       11.8433457623       11.5813309942
 Se         7.7535836871       12.4718022116       15.4822192378
 Se        14.8814469943        9.3189553332        3.1780680043
 Se        14.5431592321       10.3540568961        7.6182068135
 Se        17.3739356787       12.9791645030       10.5768361456
 Se        12.7377731894       10.5585447603       16.0895784202
 Se        17.9342877441        7.7929696464        7.5793674270
 Se        10.6882303248       17.1934818614        8.8317234018
 Se        14.1947471110       15.8143366871       12.1322865977
 Se        14.0207341966       13.7131647151        4.1158160299
 Se        13.5363682389       14.8487541536        8.1727607544
 Se        17.2620237529       12.3848173871        4.9553727194
 Cd         6.2005484119        5.3282388522        6.2398897821
 Cd         9.3883236166        6.7049078622        8.8036380298
 Cd         3.4110649395        8.4348203805       11.1579461729
 Cd         8.1128966210        6.2502115119       16.4362111066
 Cd        12.7919834689        4.4174783235        7.7961639324
 Cd         7.9067048365        3.1964273990        8.7070382285
 Cd         5.0061312106       10.9628988643        7.9432810778
 Cd         6.7822003545       13.7212131518        7.3285576539
 Cd         6.7933780101        8.7618092245       11.4346563460
 Cd        10.1066146581        9.1702075948       18.9106934017
 Cd         9.3358625048        8.0401450758        4.7031913101
 Cd        12.5992882772        8.6440606420        6.7810625498
 Cd        10.0885225619        7.6606331907       12.4863543316
 Cd        13.4765722016        8.0285664797       15.2886374672
 Cd        15.9241292155        6.1672455151        7.7836180872
 Cd        13.4339289369        7.5725736824       10.5780573269
 Cd         9.5921278089       14.9094920776        8.8734484415
 Cd         9.1373397590       14.0139451763       14.0597714211
 Cd         6.9627616907       16.6435512686       15.2794397134
 Cd         8.2000096960       15.2576953266        1.8553975492
 Cd        13.1402014472       12.2095407234        8.6213585170
 Cd        10.9977470982       11.0760411791       10.4253554170
 Cd        11.9383821603       11.3319739858       13.9255193628
 Cd        12.3901493882        9.4919763982        2.3962297453
 Cd        14.7323360543       11.0834500097        5.0815646116
 Cd        15.2926427966       14.4121844597       10.1444155840
 Cd        16.6069377848       10.7816500319       11.7711857504
 Cd        18.1442947902        7.8173067773       10.1892641814
 Cd        12.2126810116       15.2695952712        2.6533410938
 Cd        12.6866524723       16.6109926346       10.2523791301
 Cd        15.0999100868       14.7585178080        6.1852618475
 Cd        12.1841649789       14.0932581574       12.2161877449
 Cd        19.1529809854       11.0645963493        5.9986632042
