417
 i =     9100, time =    18200.000, E =     -8967.2441297193
  O        14.5711362663        2.1731468524        8.6476221988
  O        16.0331361988        1.3267993978        5.0403671403
  O         9.9604003129       17.2992543736       17.0749408005
  O         6.2804536040       11.0564818379        0.5070692876
  O         2.5674525945        6.5189549074       10.2668105236
  O         1.9713409965        4.8156329676       12.3742481737
  O        16.8418415487        6.3343808762        2.0884586030
  O         5.4104228329       16.1779614887       14.4561976124
  O        15.4177803233       19.1909415064       16.1312666737
  O        12.9153377880        2.6380890169        5.9905518566
  O        11.6452143261        2.2977256325        1.0282154527
  O        13.1064483851       19.4832279180        4.8901078693
  O        12.0740255743        7.3385017155        1.2012186915
  O         5.0951226654       18.9406255878       -1.1069555611
  O         7.0870893961        4.0675993902        4.5720172239
  O         2.7838045402        1.9280027545        5.7255857767
  O        19.3475759192       15.8038363557        3.1201319546
  O        14.6105798472       19.7877267860       12.2034014846
  O        18.4423088856       21.0726401201        3.2957572497
  O         6.7400261819        5.3229049075       15.3169283266
  O         2.0708147582       18.1091066960       11.1914893296
  O        16.7745405675        2.9319570564        9.7334768909
  O        19.7830504875       11.9405210863        7.7872020646
  O         3.1942054736        2.9638756949        0.6059016458
  O         5.7789434351        9.3812198290       17.8196038072
  O        17.7008234373       13.3237243991        1.2366470269
  O         3.2887049835       10.4066600207        6.5915386185
  O        18.5828625203       19.9593594731        5.7321521859
  O         0.7055241202        8.8976059254       12.7507065660
  O        18.2220991057       12.6847129100       18.0220446391
  O        15.7955945679       16.7538691552       15.9948089729
  O         4.5948436887        6.4103371716        4.7058027843
  O        12.7945285170       19.8610401380        7.5607791546
  O         4.1704188664       19.8173558929       11.2933285021
  O         7.0000204005        8.4836704422        0.4862783023
  O         4.0059989298       19.2802927096        4.5619887842
  O         0.6378456880       11.4784300835       12.6363531919
  O         9.7001814493       18.6306383300        4.2620661663
  O        12.6360457451       19.5803562052        2.3210928740
  O        18.9758271570        6.8405641229       14.1946749866
  O        10.4681364973        6.1714999507        3.1907798633
  O         2.3244872992        6.8985516863        6.0924777664
  O        10.0315649609       19.7915183539        0.2854365795
  O         2.9071497742       18.9982929136        0.5235770408
  O         0.8479630818       14.8499970610        5.9759014519
  O        19.8172791722        8.2143705433       -0.5200011771
  O         3.3594561340        9.4235433214       16.8365755307
  O         2.9542980608        4.4205037785        5.1200462686
  O         2.9867894856       15.6165979921       13.5163510689
  O         3.4078940868       19.6951631624       16.4223604592
  O         1.9379650055       11.0001198409       14.9543373557
  O        17.4824696955        4.4153759533       16.1765094894
  O        18.8054661206        5.6930669553       -0.9247271132
  O         5.0893617467       13.4103488819       19.3207320911
  O         3.1005746556       16.8681086184       16.7069220092
  O         8.2361813534        4.9505471585       18.2689862844
  O        17.0718508503       17.2191956593        8.8990789656
  O         7.1278182414        6.5893156269        2.2217061596
  O        19.0109001023       17.3707016710        0.9549321006
  O         8.1053029612       18.4861752691       18.4522711363
  O        16.5756191184       11.3122469315       13.6794140986
  O        18.9967289816       16.9337306370        7.0799189841
  O        19.9286683749        3.0638036286        4.9002556540
  O        12.9814901456        2.5324987682       12.0211629899
  O         5.3678264367       18.3928015767        1.4165160329
  O         7.5761481973       15.9770588263       17.6899553920
  O         3.5378567401       18.0637302114       14.3961652407
  O         8.3511826657       10.4026728691       18.2829576026
  O        14.0059726179       14.7453424939       15.3956921519
  O         6.2672213151        2.2003309620       11.5634085042
  O        11.7112728895       16.0805697530       15.5359669395
  O         9.9070058562        3.0759785907       -0.8437398857
  O        15.6795892265       11.6100999917       18.5711890066
  O        19.0270304375        5.6170541512        3.4624845238
  O        10.4413195534        5.2158539039        0.6623554212
  O        19.7949909829       20.2702333722       13.2758297012
  O        18.6184680573       15.2102518912       18.7486868366
  O         5.8798086621        1.7167177978        4.9041057509
  O        14.1398930302        1.6367405452       17.2306900461
  O        16.0055256742       18.6776908269        0.3737146870
  O         8.1348620581        9.0276638987        2.8330860852
  O         6.4867513622       18.5429959024        3.9753277386
  O        16.6281641003        4.7077975386        4.1606533384
  O        18.8616601193       11.9612308666       14.8994793420
  O        11.8916308637       13.8256311385       16.9788241661
  O         4.7427183045       12.8848116908       16.7620528670
  O        20.1541009390        2.0580636406        1.3038471026
  O        13.3923509497       17.2437132706       -0.8643382206
  O         1.7036080856        4.0905516406        9.8626886661
  O        20.3879719215       10.6526309734        0.3123616108
  O         7.1462363593       18.6963606556       14.3959049412
  O         1.5486031323       13.5333246128       14.2331690883
  O         4.2006823203        4.6947956913       18.0692667474
  O         1.4575998837        8.5190751882       15.1951614792
  O         6.8043545378       16.4912319413        2.5779136469
  O        14.4992177798        5.4546464654       18.9528739379
  O         2.8767057709        4.1450465045       14.6549718955
  O        18.1118729674        2.8701534722       14.1146097381
  O        20.3969555260       15.2410125333        8.6554633601
  O         4.3912476404       17.7003676397        9.5868088657
  O         1.2236389628       18.4288378355       15.6365476287
  O        17.9548550660       10.1540381634       18.6085200736
  O        16.5000496852       14.1903114354       15.6695577826
  O         5.8220544272        3.3861602430        0.4352621588
  O        18.8551468334       17.6832198117       17.7549506378
  O        17.9939057080       18.3200401888       15.4358925606
  O         1.5381160481       16.2349072596       -0.6000722852
  O        10.3648147894        1.5955567858       14.2189443847
  O         4.5275332226       17.1622091503       11.9936190994
  O        18.2562737270        9.3511067039       14.6834935134
  O        20.1318415039       10.2211907712       17.0762411150
  O        15.1248954844       18.9265241077        9.0282955142
  O        18.5096706567       10.0575586567       10.8307068137
  O         7.6670145246        1.9998643648       14.4958417680
  O        15.7586704110       18.0812906113       13.8523788912
  O         4.1105188216        6.1569758656        0.8969237473
  O         3.6675498569        2.8165411123       12.4122832217
  O         7.9388894570        1.5676260672        9.4762059957
  O         3.4098463193       14.6663037849       17.8364766224
  O         5.9814728296       20.2851675063       16.2387991062
  O        15.1054620514       16.2997704401        1.0381614498
  O        16.7995071682       15.5717444153        6.8511553261
  O        10.7350797533        1.7250732108        3.4854363774
  O         2.2217898505       17.0234301057        7.1338505968
  O         3.9643835757        9.4620706639        4.0982553850
  O         3.2475442570       14.3655197701        3.0942773959
  O        13.2063185329       14.8420100722        0.5046300039
  O         2.0561127230        6.1434058055       18.3547505080
  O        12.7328774367       17.1208587455        3.6922582600
  O         3.6368080547        9.1266591929        0.2060576538
  O         4.5430735030        5.2922092172       12.7854843855
  O         2.3446744018        1.6553369897        8.9161478314
  O        15.9001967308        4.3640154352       13.7832997631
  O         7.5235235201        1.5116915058        0.0228068049
  O         9.5504174859       16.3678630365        0.0932547494
  O         5.1661644346       12.5035660659        2.4383388135
  O        16.7514809084       18.3225349976        6.4695473683
  O         5.7174213519       19.1547895083        6.5922764754
  O        16.0782860423        3.9197298266        7.2099136159
  O        12.4710488901       20.0923377781       15.2914895964
  O         7.9625738780       18.8639118360        1.6858967652
  O        19.7081664661       15.5043547629       12.9955236337
  O        16.8572471974        1.3030503354        7.6166463024
  O        18.6093159375        2.3299447041       11.4891254891
  O         1.8458820996        4.2360865457        2.3129897696
  O         2.3969931713       12.0408873395        2.0632657863
  O         1.8358796737       10.0543483846       10.6115342493
  O         2.1287847577        6.6131188287        3.5799588074
  O        11.7845011265        1.2704442579       17.9188473580
  O         5.2032363122        1.3129828243       13.8431673275
  O         8.2888167821        3.7039395849        1.2728282296
  O        11.6295330022       13.6911739026       14.2727570767
  O         7.1178575473       -0.3346447314       11.1076592398
  O        19.2790356870        2.3062890626        8.8919887592
  O         4.4969080384        7.2052924003       17.7843320005
  O         6.8302865041        2.1569963453        2.6243164458
  O        10.6968000200       18.3369755125       14.6400228731
  O         4.4388229188        2.2454030486       17.7806977825
  O        11.8911326472       19.5819752041       12.5802169795
  O         9.1637263022       16.2788727552       14.6826525402
  O         3.0707328549        2.0767713772        3.0855313116
  O         4.1145974225       16.8309896262       -0.1388985649
  O        18.7448653227       18.4593669915        3.5105768908
  O         7.5154588656       13.2474990309        1.0499935271
  O        17.9001026453        3.8195987352        1.7865051191
  O        15.1623158430        1.7540591283        0.7931495728
  O         1.3962203548       19.7329226961        4.1267848013
  O        20.2711749553        6.4119054878        1.3022540618
  O         8.4645913388        1.6040549075        4.7095456098
  O         9.2869937692        3.7860249044       13.4102838827
  O        21.5797876628       14.0289973434       11.6245533598
  O        13.2289309474        2.8504385432        3.0452844333
  O        14.8512624182       18.3277331977        2.8449215410
  O         2.8933178164       12.1382543205       18.6643494084
  O        17.0207663360       16.8461479709        2.3785778553
  O        17.6722983108       19.7190734516        9.8675535323
  O        15.0372102235       15.0442952951       17.9583864652
  O         8.8068724201        1.5102278312       12.0041776791
  O        15.2266048884        7.6313207748       15.7290895922
  O        16.9558563958       10.8661998514       16.3231983406
  O        16.5754938323       20.6484887699       17.9339378375
  O         1.5003435183        3.7359397990        7.3378485560
  O        17.1051240235       20.1251471981       12.9703059427
  O        16.0319972620        2.2574245748       15.4720999056
  O        10.7686529339        1.0090072532        5.9393055638
  O        12.4141788991        3.3644821270       16.0942662501
  O        16.3442491899       18.0438672671       11.3288588341
  O        17.8587047352        1.3196276926        0.7778750995
  O         1.4314986835       10.0033493238        4.6129669051
  O        20.1443519983       13.2723473947        0.4678115154
  O         3.3152724017       12.0378863104        4.4320592485
  O         9.4285780241        7.5737195652        1.0100827200
  O        19.4154029638        5.8670825471       11.0143506635
  O        13.0301152650       20.0113756827       10.1611756253
  O        19.4591547358       20.1628397686       17.1153861624
 Na        19.6296781517       13.6366121694        2.8408249996
 Na        12.1937496693        4.8363798826        3.9526681776
 Na        15.0431019912        9.6589623797       16.7322209978
 Na         6.4971589866       16.6033959179       10.3498494422
 Na         4.6145630560        8.3597315691        6.3307874637
 Na        17.5749613403       14.4197550874       13.2807352269
 Na         1.7794261034        1.1731343782       11.2960168677
 Na        18.2273858667       13.7239220951        7.4578149115
 Na        17.6269888152       10.5345323559        8.7520159141
 Na         8.0015751546       16.9950295289        5.1733524608
 Na        10.9839841138        4.6537211720       14.7446763783
 Na         1.8038217013       10.0941700720        8.1926281155
 Na         6.4388299361        6.3123403317       -0.1343420903
 Na        10.3435257529       17.9296330348        2.0150220446
 Na        13.3847767462       17.8273475894       16.3619921264
 Na        10.0746558254        1.1353547362        8.5120110942
 Na         8.4823925164        5.1120838946        3.3592345114
 Na        18.8175181184       14.0534020833       16.0078716231
 Na        13.7344582980        3.5252076822       14.0894114672
 Na         5.8935581770       10.4627345783        3.6421327339
 Na        16.1312217834       11.4446096503        1.5000467483
 Na         0.7132727650       13.2908603637        9.9612652305
 Na         6.5164852411       18.8317012516        8.7334606098
 Na        14.2229890731        3.6259562703        0.7735330566
 Na        19.7381805170       16.5992866506       10.5991024161
 Na         4.2307371532       17.4621418356        7.3170216262
 Na        15.7697113016        6.8638317420        3.9922124153
 Na         4.8850890575        7.0031076605       14.3055273971
 Na        12.2422890637        5.7948041850       18.3536056920
 Na        20.2565113535       19.4419332864        0.1482857012
 Na        13.3127581697       19.3820398563       19.4530514696
 Na        11.4788842003       17.1182838353        5.5472785158
 Na         1.8326772465        5.8279693538        8.0358512530
 Na         8.8069186788        9.8055818833        7.6089033447
 Na        11.1974370362       12.6664738446        5.2037449909
 Na         2.4841712389       12.9496426782        6.8512245934
 Na         4.2837609542       14.1583895409       15.0303821832
 Na         7.5330713544       12.3920510508       10.8411411663
 Na        16.8242222922        5.4419223447        0.0536759406
 Na        20.3402149280       18.9310371759        7.8196789546
 Na        20.7438887913        5.6911237472       15.8113158605
 Na         4.7953083895       15.5117220192        1.8898712783
 Na        11.3919959503       15.1228244155       -0.6551966192
 Na         2.9217541820       15.4282894620        9.7897549867
 Na         2.0604999349        1.8395505267       14.8695196178
 Na        15.3705676177        1.4751967542        3.0256691880
 Na        18.7202532496        5.0513280561       12.9872982897
 Na        13.6206993070       12.9704079712       18.3690799010
 Na         5.1745114717        4.9915899921        2.7803420227
 Na        14.8351500502        3.3055488815        4.9283159910
 Na        16.1742943317       14.4909684685        2.2152966207
 Na        15.8960353096        6.8001237120       13.6005415633
 Na        15.0062722814        5.7885174500       16.8769936555
 Na        19.8696348283        7.6712907891        5.1747670400
 Na         4.8403656641        4.3778223053       15.7905085923
 Na        20.0845428620       17.8472337636       13.3463445693
 Na         3.4204054901       11.9143496748       11.6550780530
 Na        17.7773711320        6.6644434353       16.2943466048
 Na         6.9797229722        4.2487662700       13.0894844993
 Na        18.6713316210        2.8753788857       17.3313552772
 Na         4.4456709353        1.5612622735        7.6262796754
 Na         7.5319888569        2.9662762201       16.6812972582
 Na        10.9660882519        3.6311626781       11.3481986211
 Na         4.9312191084        5.6414708771       10.5685701974
 Na         7.0411534452       13.8101498876       17.7190021081
 Na         8.4448893427       17.8493201155       12.7312731302
 Na         5.1837340368       10.8153463711       15.9410446428
 Na        10.1747307257       12.1293898631       17.0126621016
 Na        14.5265867140        7.2637043385        1.1351046568
 Na         8.9379048486        9.6936044890       15.3387872053
 Na         4.9605906203        7.9475553614        2.1348552375
 Na         2.0710768636        9.1798823152        2.4585096381
 Na        18.1709722779       15.2998359633        4.9607354631
 Na         9.0696621057       11.5948828019        2.1021395518
 Na        14.9733867841       12.6552499441       14.7362577910
 Na        15.3733031023        3.2343441981       11.4297567444
 Na         1.8578654291       16.0896607382        4.4061729384
 Na        17.9157753632        3.6185529902        5.6380181640
 Si        15.9756845134       19.0387139394       12.5921991354
 Si         8.7503501669       16.9603024623       18.2087998281
 Si        18.4195332287        1.6767209489       13.0261560181
 Si        10.6964652065        6.6479799728        1.6627116907
 Si        10.7913655133        1.8498553892       -0.2897275092
 Si         3.0212701622        6.0787229178        4.9080069524
 Si        19.9970873541        6.5436811135       -0.3216598729
 Si         7.8753495837        7.9325969053        1.7190716327
 Si         2.8711122271       18.2418247845       15.8257429845
 Si         3.6650995319        6.1605050592       -0.6334251289
 Si        19.2114244622       18.6981121902       16.5255672771
 Si        16.9440228147       19.9623197486        6.0943474903
 Si        17.1257075641       11.3853049867       17.9054076514
 Si        18.5660825319        2.3170928581        1.8111413053
 Si        20.3752544565       15.9382366474        7.1845016546
 Si        19.3542157368       16.6403702257       -0.4239955270
 Si         9.2298902747        4.3594504008        0.0175910500
 Si        19.5135771066        8.3652903337       14.1710922400
 Si         4.2832017597       18.4329710310        0.2606308093
 Si        15.3721412138       15.1497134098       16.3009733581
 Si        15.7905806126       17.6665399254        1.6517616422
 Si        17.6236107480       10.8334136646       14.7746811680
 Si         4.1736384556       16.7378042711       13.5093699946
 Si        20.4825002579        5.6129673725        2.6991615827
 Si        16.0584066863        2.6555198416        8.1571419989
 Si         7.1009439264        2.7048628821        1.1514704968
 Si         1.5623488107        5.3871200302       10.8887655587
 Si        12.4518572313        1.1529300651        6.0211160847
 Si        18.1051250661        1.9709208305        9.9638538225
 Si        19.5754705503        9.7809261275       18.6248659075
 Si         9.8743547529        0.8328036206        4.5123861878
 Si        14.1109237205       15.9946456003       -0.2559900763
 Si         1.9392825695        9.7851534310       16.1106581170
 Si         7.4993846573        1.1920446293       10.9889573299
 Si        16.5695519553       18.5483464477        9.7838496571
 Si        19.9276845749       10.1093672147       11.6479036790
 Si        13.8831819439       20.0667778993        8.7698099595
 Si         2.9919645438       10.3654268819        4.9524234112
 Si         4.3801973034        3.3006081707       -0.3729460881
 Si        16.3758539370       18.0754051939       15.4014730802
 Si         6.0496892751       12.5537840178        1.0453635645
 Si        15.6180815699       20.6994686606       16.6859621108
 Si         4.9006810242        1.6500821785       12.2554337158
 Si         3.0812315107       16.2253768399       18.2025743423
 Si         2.8299397877        1.0492314347        4.3702479359
 Si        12.6058867643        1.8362827762       16.5629550956
 Si        10.3149456812       16.9269127294       15.4580825678
 Si        17.3895285828       17.0197371258        7.3218912345
 Si        18.5861548817       13.6114218188       -0.0428916038
 Si         9.0020048230        2.2311443762       13.4909955934
 Si        17.5098249992        5.1018406060        2.8674803688
 Si         6.5199516273       20.1120661476       14.6546129891
 Si        11.3573434938       19.6956626970       14.1546819562
 Si         7.1724306302        2.4797240490        4.2395747748
 Si         3.6864497629       18.2189392084       10.9045438351
 Si         8.4038275581       19.5007775335        0.2624798193
 Si        13.1114597306       20.3954085847       11.7657384721
 Si         5.5879180216       19.4765913745        5.0408035765
 Si         0.9562038402       12.0178553393       14.1264689283
 Si         1.7607075770       14.7520841237       12.9733877519
 Si         3.5620548674       12.8548224914        3.0665197154
 Si        13.3668857959       18.5748954774        3.5435895054
 Si        16.7813758698        3.6127085208       14.9468826393
 Si         4.7375129128       20.1004129809       17.2141224661
 Si         1.4681310247        2.9182039374        8.7481667912
 Si         4.2303540243        8.7996299814       18.1547526820
 Si         6.6072600614       18.0539095279        2.3828758274
 Si         2.2167699019        2.7098646426        1.8502986602
 Si         1.8237900144       12.0589775655        0.4878792506
 Si        16.3814669038        0.9544444324        0.1500353205
 Si        18.7024005204       17.0816475368        2.5541413943
 Si        12.2750847589       14.5062724609       15.5835930861
 Si         3.3885594882        4.3164339288       13.0388898750
 Si         6.9469317298        9.9065039126       -0.4578535493
 Si         1.8528441576        3.3481997458        5.6887334576
 Si        12.0836357879        1.8316874317        2.5706929286
 Si        19.1554615171       19.8469782761        4.2286561438
 Si         4.0063627349       13.2285516642       18.1282591735
 Se         4.8972108464        9.6119015079       13.1130097115
 Se         7.8940409202        7.3365771247        6.5057624894
 Se         5.1045559110        4.2985162601        8.1553057599
 Se         8.0427938014        6.5303030408       11.0148342210
 Se        10.2198024045        4.1616738978        8.4304901374
 Se        14.0746771204        5.1156855358        9.7502014804
 Se         4.9177893953       13.0748901207        9.5170604362
 Se         6.9549668847       11.3193640546        6.2223302063
 Se         5.5295968600        8.5016866727        9.1716578731
 Se         9.3878977507       10.3683526463       12.4702347783
 Se        11.1424846540        9.9342627896        4.8571247360
 Se        11.3430561485        8.5901811960        8.8951294066
 Se        12.2147079066        6.7216344227       13.0358115478
 Se        10.3862228788        7.4613112525       16.5542231118
 Se        13.5918938522        6.3706755092        5.8514174153
 Se        15.6509670314        8.4761097919       11.2817731653
 Se         9.9634924280       14.4498349521        3.4896691762
 Se         7.0823562228       15.8641839814        7.5113079356
 Se         9.0700014814       14.9559541485       11.3918244416
 Se        11.3878579864       10.9989067348        0.6403126066
 Se        10.1468836126       12.4294421338        8.1780576205
 Se        12.9869513908       12.0426152779       11.4105133099
 Se         7.8333646766       12.4159256663       15.4540285827
 Se        14.9534586361        9.3802220899        2.9609354785
 Se        14.4877601017       10.6004918354        7.5674087661
 Se        16.9824800560       13.3356055568       10.6088465699
 Se        12.4862636545       10.5143533824       16.1713662691
 Se        17.5648604608        7.6866118633        7.4324619069
 Se        10.1196073274       17.4308879801        8.2529501104
 Se        13.5697691381       16.4110614476       11.9822937131
 Se        14.0482573811       13.5049408941        4.1888252936
 Se        13.1909930354       15.0284309140        8.1286208473
 Se        17.3702722665       12.5119734506        4.5401416239
 Cd         6.0441921578        5.3995538445        6.0301826177
 Cd         9.4285111869        6.6135186282        8.6796570763
 Cd         3.4837759422        8.4416029037       10.9720858464
 Cd         8.2304039895        6.2281883834       16.3910927054
 Cd        12.6464467426        4.4695502309        7.4947130335
 Cd         7.5180618321        3.5346550865        8.4449994082
 Cd         5.0488858860       10.9690337726        8.0608264644
 Cd         6.2448687605       13.5255274327        7.0440404873
 Cd         6.8935825867        8.8387413680       11.6133683946
 Cd        10.2927193530        9.1844526391       18.6025237918
 Cd         9.3754239723        8.0279176471        4.4796762320
 Cd        12.7794201407        8.9270170632        6.5350936882
 Cd        10.1516358388        7.7984651810       12.1297704459
 Cd        13.2096269268        8.0453289141       14.9939869949
 Cd        15.6271744267        6.0547844437        7.7824175035
 Cd        13.2522049308        7.4131290843       10.5533885395
 Cd         9.3211583664       14.9370170224        8.5310855103
 Cd         8.9407234316       14.1340813461       13.8232965278
 Cd         6.9860711809       16.8428078007       15.7303751103
 Cd         8.4030301120       15.1962148072        1.6532078387
 Cd        12.9135634594       12.4543664945        8.2347224449
 Cd        10.8682459109       10.8350114665       10.3501870130
 Cd        11.6907604186       11.3505070103       13.8763885945
 Cd        12.2869500198        9.5066103566        2.5493931080
 Cd        15.0947909257       10.9973369809        5.0246447832
 Cd        14.9605486586       14.8228841394       10.2443147982
 Cd        16.4546399369       10.9168948456       11.4558491674
 Cd        18.0006285244        7.3217779928       10.2009580146
 Cd        12.4834528295       15.0606003389        2.6941122509
 Cd        11.9726228230       17.1522848288       10.0069786641
 Cd        14.9133239085       14.7863161842        6.1509890529
 Cd        11.8848098468       14.4025614042       12.0340503478
 Cd        19.3252574671       11.2874195205        5.7437275678
