417
 i =     5200, time =    10400.000, E =     -8967.2232686782
  O        14.2822432037        2.1619933848        8.7959083442
  O        15.4987190654        1.2746036398        5.2955772868
  O         9.2872139737       17.4202742593       16.8791957808
  O         5.7177885074       11.1217068994        0.8965023701
  O         2.5602133611        6.4327804264       10.5604135079
  O         1.5714036735        4.8655336197       12.4964473594
  O        16.7482979117        6.6081848908        2.1234772517
  O         4.6211519424       15.7313706605       14.3167088285
  O        15.1102733974       19.1871750015       16.2220081525
  O        12.6741926304        2.8562603639        6.2093798499
  O        11.2784600186        2.4100197604        1.0586263551
  O        12.7659143232       19.7644297496        4.9589812135
  O        11.7234642419        7.4205756438        1.5502638794
  O         4.7187230738       19.0880271336       -0.8454452087
  O         6.5629343818        4.0713087618        4.5893228051
  O         2.2856018583        2.0772472343        5.9950840687
  O        18.5143072320       15.7475498410        2.8664793834
  O        14.3453135956       19.9164743853       12.2872209412
  O        18.0343043291       20.8991998568        3.2666547220
  O         6.2380524685        5.8001207568       15.4732239537
  O         1.6297407605       18.2853361669       11.0911815952
  O        16.5333676613        3.2147213594        9.5823875631
  O        19.3835723710       11.6008933136        7.7377030431
  O         2.7210533232        2.9690589790        0.6592724161
  O         5.4668838722        9.7155088194       17.9013223498
  O        17.1250891113       13.5793776715        1.2108045090
  O         2.9514741697       10.3915247432        6.6599968750
  O        18.1673077567       19.9723123778        5.6602140059
  O         0.1153549174        8.7639594717       12.7804948856
  O        17.9408232989       12.7035026018       18.0529328407
  O        15.4009535060       16.6642321306       16.2046722648
  O         4.2829203670        6.4144034098        4.9742505253
  O        12.4925404968       19.9231343639        7.8004427561
  O         3.6836493870       19.8666812734       11.7491167828
  O         6.7431666971        8.8710834554        0.6663670734
  O         3.5197150079       19.4625764403        4.7082158540
  O         0.6440008086       11.4289237753       12.7289115637
  O         9.3952930939       18.9913779475        4.7239016079
  O        12.0976864875       19.9268988009        2.4226721076
  O        18.4899707981        6.9986895557       14.6069155235
  O        10.0860024783        6.1610843037        3.3187032752
  O         2.1536412246        7.0443174410        6.6340079373
  O         9.3931697829       20.0109635917        0.5505293749
  O         2.2363556364       19.1498732784        0.3959370230
  O         0.2121586048       15.0063526059        6.2411275298
  O        19.1997258164        8.1590564063       -0.6932887591
  O         3.2655033627        9.2724421271       16.5075694498
  O         2.6105944459        4.6373618627        5.6787622804
  O         2.0653502717       15.9510968360       13.7543965289
  O         3.1692179850       19.7732237998       16.5600105556
  O         1.8127597779       11.1438114501       15.1758987144
  O        16.8396649051        4.5701315294       16.4981326323
  O        18.8177179309        5.5538298642       -0.4020637819
  O         4.4797056350       13.5519424345       19.6415783209
  O         2.5725852795       17.2065816200       17.1221635114
  O         7.6866972688        5.1177867892       18.5882067478
  O        16.7645871132       17.4609410084        9.0956265539
  O         6.7912614434        7.2522286966        2.6820407247
  O        18.4266460087       17.5953779154        0.8085314815
  O         7.6408474036       18.8034660692       18.3550515925
  O        16.5441166165       11.4621997014       13.7086971774
  O        18.6384895638       17.4217094304        7.3522595889
  O        19.6966293110        3.4736830802        4.7453769855
  O        12.8092638596        2.6831486346       12.4184604694
  O         4.5899173980       18.7572478403        1.7693771208
  O         6.7900054783       16.3685765070       17.3218778893
  O         3.1098618497       18.0069559687       14.6205193065
  O         7.8616434346       10.8651337251       18.4684622473
  O        13.3204007616       15.0616639816       15.7693783737
  O         5.9805855045        2.0722254228       11.5982854563
  O        11.1490014319       16.2765482094       15.6398088510
  O         9.4363514589        3.1683906969       -0.5993818113
  O        15.4567556817       11.3938953597       18.7512936590
  O        18.7893435851        5.8604459100        3.5226577860
  O        10.0482995430        5.5097839641        0.6467583939
  O        19.4680827501       20.5492001199       13.3102439333
  O        18.2435043772       15.2639724986       18.6143664897
  O         5.5958396603        1.7142464552        5.1479371674
  O        13.5647315797        1.5837789922       17.3694046178
  O        15.7077124480       19.0268815497        0.4975543186
  O         7.9334749368        9.6906928732        2.8445119826
  O         6.0573110132       18.8774492427        3.8880309649
  O        16.4305629466        5.0916150027        4.3241092142
  O        18.7863459247       12.2877620434       14.9659524898
  O        11.2709093346       14.0459855706       17.1928111935
  O         4.2893519003       12.7625200217       16.9352575719
  O        19.8601688203        2.4791666523        1.6303905471
  O        12.9277357756       17.2754791114       -0.8388698831
  O         1.5239416044        4.1488883863        9.8959728249
  O        19.8658339310       10.6323291479        0.3508953345
  O         6.6354785325       18.6974555367       14.5269384784
  O         1.4405290004       13.5449321521       14.0445127661
  O         3.8864223988        4.7901639288       18.3881435106
  O         1.1291886177        8.5394632615       15.1783452080
  O         6.0916245892       16.6250843333        2.5419023110
  O        14.2150923166        5.6550963439       19.4188058184
  O         2.5463224953        4.0143840171       14.8098752812
  O        17.8952337799        3.0009876807       14.4735676496
  O        19.4381106597       15.3342280300        8.9026951556
  O         3.9806636463       17.9911695007        9.7591178624
  O         0.8211081741       18.5719019176       15.6188292504
  O        17.7150935683       10.1934735913       18.3795454810
  O        15.8321212885       14.0703479595       15.8984050988
  O         5.3255837720        3.5731882839        1.0423752901
  O        18.8582689599       17.5877439719       17.6836861218
  O        17.5573444741       18.3369933436       15.7013410684
  O         1.2336996792       16.1905282408       -0.1168378675
  O         9.9785176276        1.7453271179       14.3133326854
  O         3.8098297379       17.1466737311       12.1278078425
  O        18.1145192478        9.5913184200       14.9062503561
  O        20.1058139255       10.1389570813       17.1594978300
  O        14.6027896461       18.9940651450        9.4332229702
  O        18.4258318757       10.1267072353       10.8886124687
  O         7.4037146044        1.9067260971       14.7467367750
  O        15.5502834972       18.0185372714       13.9510366679
  O         3.7538658092        6.3793511162        1.1608767385
  O         3.6796335643        2.9793358380       12.4694916162
  O         7.8925331508        1.5419176228        9.6061043196
  O         2.9743880560       14.7864490901       17.9819973420
  O         5.8567378940       20.4474654621       16.5236137330
  O        14.7260788184       16.6264962424        1.0727986295
  O        16.4971131823       15.8045963318        6.9109127464
  O        10.3412501611        1.9840244000        3.7129252252
  O         1.9163816519       16.7004818073        7.5440969769
  O         3.8429903136        9.5375482114        4.1518364283
  O         2.4826775301       14.3119238306        3.3912824352
  O        12.7935696837       15.0185397787        0.6559087495
  O         1.8782083563        6.5898102122       18.6430092518
  O        12.0084273475       17.5314820148        3.6466768163
  O         3.1593503896        9.3497250908       -0.0763104333
  O         4.0913630192        5.5154349888       13.1207052495
  O         1.9346437559        1.6267877530        8.9421635918
  O        15.6305165175        4.5710607152       13.9735947135
  O         6.9845064014        1.6897528781        0.2238682768
  O         8.7733705988       16.4459517477       -0.1934389974
  O         4.6453597849       12.6617112527        2.7548526572
  O        16.1843600432       18.5494935160        6.7764863124
  O         5.3249839835       18.7871896397        6.5168927280
  O        15.5974252240        4.0143372754        7.1834145648
  O        11.9729757737       19.9688625859       15.4974369529
  O         7.2862604135       18.8567038792        1.5892826015
  O        18.9491614603       15.3058828999       12.9256315660
  O        16.6418274601        1.5604443437        7.6402676248
  O        17.5989955214        2.6957494725       11.8385060850
  O         1.6318089940        4.6220725162        2.4913725631
  O         2.0695326946       12.0393133433        2.0423188750
  O         1.7515274428        9.8846172182       10.9136730169
  O         1.9080976541        6.6500037496        3.9671391886
  O        11.1043851754        1.2601131127       17.9772635387
  O         4.9282685621        1.3107908534       14.0061111718
  O         7.9932723331        3.9653270461        1.4560299535
  O        11.2233665793       14.0162314998       14.3671144005
  O         7.0003370476       -0.5694023380       11.0021794365
  O        18.9926825473        2.4178516180        9.5860440657
  O         4.2442082267        7.2676199771       17.8213503260
  O         6.8053416369        2.1779476182        2.8163962348
  O        10.0982881032       18.4304999623       14.2918588079
  O         4.3652465239        2.4257010974       18.0058299826
  O        11.7284758347       19.6338783832       12.8150160483
  O         8.5524357080       16.2206839229       14.5616078827
  O         2.8133997090        2.2244712545        3.1994626023
  O         3.8394973621       16.8034259259        0.1424918595
  O        18.8051825641       18.3175927867        3.4625285712
  O         6.8882396737       13.3853919522        1.4329354199
  O        17.4848950687        3.8984577703        2.1154113734
  O        14.9009576952        2.0040930489        0.9690196469
  O         1.0161812662       19.9155823249        4.1411426453
  O        20.1953984549        7.0503260758        1.5663237586
  O         8.1676760001        2.0034962013        5.2118587842
  O         8.8255327362        3.8631699796       13.3065171729
  O        21.1144124702       14.3656867058       11.5248271835
  O        12.7594123813        3.0810083055        3.1439000875
  O        14.3259334995       18.7478772201        2.8027287696
  O         2.3865107099       12.3317224857       18.7787795087
  O        16.5625436369       17.6354702653        2.7470254414
  O        17.1526910247       20.0252189838       10.0840840998
  O        14.4643210011       15.0400700719       18.1125719105
  O         8.4188082973        1.3163244767       12.2520180587
  O        14.8036450701        7.5319567973       16.3011343698
  O        16.4671265221       11.2245541608       16.2731650982
  O        16.1545473152       20.8720159928       17.9345366220
  O         0.8144811320        3.8303761668        7.4757515483
  O        16.8169903015       20.1068529227       13.2737068628
  O        15.2524090723        2.5123217544       15.5330281904
  O        10.4655022107        1.3264527137        6.4147977989
  O        11.7932560360        3.2731005665       16.0798732165
  O        16.1857488815       18.1417820927       11.4483463489
  O        17.6348641159        1.6373329719        0.6534414322
  O         1.2431007261        9.7833245711        4.5695800533
  O        19.7636806730       13.4247008247        0.5327071937
  O         2.7936579715       12.0899477029        4.6536659192
  O         9.0607871055        7.7973926964        1.3285448393
  O        19.2148130264        6.2976598557       10.9938957247
  O        12.4918553276       20.2048844757       10.3991139212
  O        19.0109138870       20.3344873544       17.1524228980
 Na        19.4677837902       13.7941899437        3.0086385157
 Na        11.4149286007        4.6504559281        4.1688749495
 Na        14.8317516064        9.3885135531       17.6023653946
 Na         5.7015903728       16.8202792686       10.8616543074
 Na         4.4574518801        8.5616688493        6.3726758983
 Na        16.8204431984       14.1301901470       13.0484533793
 Na         1.5668302138        1.6549014582       11.5325766135
 Na        18.0543708201       13.7745783906        7.5860140191
 Na        17.5205652191       10.6078693860        8.6667580734
 Na         7.4035143385       17.4041656962        5.1112289921
 Na        10.4347678638        4.5974994331       14.9938236557
 Na         1.3516375204        9.8966571316        8.4826842428
 Na         6.0594716212        6.3762880918        0.1329474960
 Na         9.8047282406       18.3435625883        2.6301306418
 Na        12.7186097910       17.8882802422       16.2887620754
 Na        10.0593765869        0.9233464938        9.1038598211
 Na         7.9859194199        5.5264607661        3.6833693619
 Na        18.0277570877       14.3167878387       15.8908539704
 Na        13.4053781769        3.6906780313       14.4472486913
 Na         5.7075454867       10.4602449399        3.2429720899
 Na        15.9120918465       11.7034522044        1.8757302781
 Na         0.1971444085       12.7422941398       10.1140114034
 Na         7.0033516819       18.7774175862        8.3255372096
 Na        13.4634113646        3.8258735864        0.8276607123
 Na        18.4331133803       15.8914924121       10.7057896995
 Na         4.2219269390       17.0088143264        7.3802950125
 Na        16.0073202014        7.3576296345        4.4258314643
 Na         4.8381351744        7.2490288472       14.6603481681
 Na        12.1907221972        6.5101373520       18.8514487920
 Na        19.7118475654       19.9281683540       -0.1396083443
 Na        13.0870698876       19.5021026393       19.5989060913
 Na        10.8556131844       17.0841771770        5.5022044912
 Na         2.7696470184        5.5803229565        8.4012329515
 Na         8.2554866617        9.7783043130        7.7927697590
 Na         8.9668562679       12.7766273363        5.6423198565
 Na         1.6870365656       13.0346258768        7.0737885228
 Na         3.2764182713       14.4939083913       15.6699206919
 Na         7.5465829416       12.3781961740       10.8344755024
 Na        16.4244826448        5.4461888528        0.2026278971
 Na        20.4546537564       18.7734948029        8.7971606411
 Na        20.4758829405        6.0026331427       15.3551596092
 Na         4.2564347218       15.5047601105        2.1487362583
 Na        10.8547137672       15.8834894749       -0.8171468952
 Na         2.2886230348       15.9291166441        9.7667882410
 Na         1.3084707723        1.9953392625       15.1414537770
 Na        14.6787978431        1.7160233968        3.1810360701
 Na        18.3985366585        5.2464613738       12.9595792408
 Na        13.2522866158       12.9111038169       18.7470711756
 Na         4.3063203716        4.6653095115        3.4827557826
 Na        14.8478844797        3.6236898077        5.1642913913
 Na        15.7927996879       14.9813449602        2.1534335624
 Na        15.7500741667        7.0644896072       14.1811835191
 Na        14.7098537578        5.4391002668       17.2464700024
 Na        19.6510630588        7.9718014556        5.4514184943
 Na         4.4305598968        4.6497254261       16.2022854701
 Na        19.7767803924       17.9518812300       13.2325551948
 Na         3.1463824009       12.2625113512       12.1250969202
 Na        17.6953752956        6.8091343698       17.1022434915
 Na         6.8371489088        4.9338366723       13.2551028499
 Na        17.9629497761        3.0417074376       17.8937022645
 Na         4.0552459764        1.1958881859        8.3045197328
 Na         7.5964682219        2.6769556325       17.4124668874
 Na        10.9312438979        3.9720924284       11.8103814323
 Na         4.7784666268        5.4286940978       10.8402852602
 Na         6.6699567169       14.1886971369       17.8111062893
 Na         8.3303324488       18.1593223768       12.6791820573
 Na         4.9935952777       11.1031296386       15.7500117221
 Na         9.6974842386       12.2491503861       17.5249135513
 Na        14.5565508644        7.4599685655        1.3392993916
 Na         8.3099264532        9.9752326347       16.1624878159
 Na         4.3829453544        7.6009134863        2.8702490760
 Na         2.1422429726        9.5055187937        1.9289505361
 Na        17.7511115555       15.0740616352        5.0557123020
 Na         8.7262445418       11.8302423472        2.1379508260
 Na        14.6909312662       12.2725423307       15.1625621907
 Na        15.0829904072        3.4906831332       11.7447969246
 Na         1.5009833917       16.2567076419        4.7995951832
 Na        17.7290081118        3.9185918107        5.8163980770
 Si        15.6704803738       19.0632702845       12.7311859706
 Si         8.0392876504       17.2066067643       17.9795629914
 Si        18.0590470230        1.8489084713       13.1791903185
 Si        10.2756839736        6.7331393485        1.8759622078
 Si        10.3075739299        1.8799997153       -0.1552411236
 Si         2.6882897756        6.2477753754        5.4058059661
 Si        19.7992538208        6.7097282611       -0.0686414470
 Si         7.6452451013        8.4495046368        1.9479065297
 Si         2.4163192787       18.4251607318       16.0624913824
 Si         3.4204087627        6.3098982497       -0.3893516130
 Si        18.9183682751       18.8065028208       16.5728513846
 Si        16.5926882459       20.0263666037        6.2330723470
 Si        16.7714509481       11.5377307821       17.9274774239
 Si        18.2001455313        2.4720071343        1.9696542179
 Si        19.7569805895       16.0455541188        7.4631339479
 Si        19.0233288622       16.6583980766       -0.3717791810
 Si         8.8193593401        4.5278568164        0.1522131013
 Si        19.1215745390        8.4378559355       14.2980029122
 Si         3.7376515292       18.5588891761        0.4321114743
 Si        14.8074009347       15.1595103125       16.4390552558
 Si        15.3697838718       17.9800742689        1.7966721808
 Si        17.5022927768       11.0863051855       14.9189188965
 Si         3.5405252535       16.6950323918       13.6716041157
 Si        20.2571018255        6.0600961792        2.8783800590
 Si        15.6888086876        2.7622927168        8.1892484365
 Si         6.8044157753        2.8876689425        1.3881705980
 Si         1.2827565348        5.5197627029       10.9633344660
 Si        12.1926401286        1.3514100585        6.3413214007
 Si        17.5568820881        2.1993506294       10.2820218691
 Si        19.2187730707        9.7616881690       18.5218478327
 Si         9.5562809888        1.1758405008        4.9687534819
 Si        13.7044914188       16.0246599100       -0.1577634998
 Si         1.7863492745        9.7558013038       16.0506408443
 Si         7.2379103714        1.0185117545       11.0421734510
 Si        16.1691357363       18.7131016850        9.8660511684
 Si        19.7935334795       10.0128271935       11.7757363478
 Si        13.4997034346       20.1341173409        9.0119532753
 Si         2.7421126783       10.3834529902        5.0111460066
 Si         4.0816344067        3.4408289134       -0.0808201388
 Si        16.0092640124       18.0069754652       15.5311648752
 Si         5.4433641475       12.7372814510        1.2923397692
 Si        15.0409688667       20.7591283238       16.7104798875
 Si         4.5960570529        1.6492111318       12.4292597852
 Si         2.6989424862       16.2943503787       18.4704113126
 Si         2.4027555965        1.2828166998        4.5078562160
 Si        12.1296394617        1.8404700674       16.6581873607
 Si         9.6912855738       17.0441788757       15.3397946862
 Si        16.9808625903       17.2541467298        7.4775342369
 Si        18.1253686816       13.7641213569       -0.0429391168
 Si         8.5586185710        2.2963519657       13.5355571756
 Si        17.3088483965        5.4429111523        2.9869463842
 Si         6.1752694817       20.1390813151       14.9195743154
 Si        10.8935044137       19.7710176416       14.2029025847
 Si         6.7876032589        2.5595202191        4.4417991670
 Si         3.2137427456       18.3221606344       11.1018896984
 Si         7.8148611821       19.6525093017        0.2925712375
 Si        12.8017111698       20.5351678529       12.0126146870
 Si         5.1395698256       19.4985439165        5.1086140658
 Si         0.8157270830       12.0967381709       14.2164842495
 Si         1.1541649288       14.8571498268       12.8908685612
 Si         2.9657433756       12.8429801328        3.1997603890
 Si        12.8024585172       18.8848572119        3.6028318982
 Si        16.4012864153        3.7888116566       15.1566179431
 Si         4.4982507425       20.2648603965       17.4777520093
 Si         0.9684622933        2.9135318856        8.8937523951
 Si         3.9679772502        8.8905607518       18.0422355196
 Si         6.0039858517       18.2203299479        2.3929898620
 Si         1.8999157954        3.0545694593        2.1402566338
 Si         1.2879582057       12.1168993004        0.5348294846
 Si        16.0575295375        1.2519906014        0.2173331095
 Si        18.1307901285       17.2331170577        2.4862954945
 Si        11.6773873376       14.7185763711       15.8159073893
 Si         3.0180007490        4.3464695844       13.2830688556
 Si         6.5205566789       10.2382635879       -0.2917506828
 Si         1.4223785682        3.4930792675        5.9035126323
 Si        11.6162430691        2.0726001665        2.7420173674
 Si        18.8085056381       19.7742025884        4.1731491698
 Si         3.5692847256       13.2772299613       18.2506482226
 Se         4.8103924193        9.7109621392       13.0322697986
 Se         8.0624264658        6.9546126882        6.4350594844
 Se         5.3016704443        3.9714736789        8.3432266441
 Se         8.2192427932        6.6811679673       11.3682989242
 Se        10.2273277322        4.1274808957        9.0568592177
 Se        13.9320325054        5.1733987456        9.7962195112
 Se         4.1018638534       13.1202872357        9.4478738744
 Se         6.5407543993       11.1502645000        6.3012136077
 Se         5.2712604326        8.5789014672        9.3968661076
 Se         9.2635368473       10.5519311642       12.6811432862
 Se        11.0649566184       10.3675198363        5.0802638092
 Se        11.3419288082        8.3832060166        9.1478897873
 Se        12.1652803161        6.6940911871       13.4253694538
 Se        10.1534723663        7.8038236744       16.6703322724
 Se        13.4293398742        6.3429758076        5.7502117314
 Se        15.5779220598        8.4346372935       11.5114224529
 Se         9.6114426129       14.9313463898        3.5697457280
 Se         6.7333598748       15.7085417861        7.6359232361
 Se         8.8186827811       15.0556828583       11.7120105026
 Se        11.1958180178       11.2645881524        0.5395695004
 Se         9.9096617013       12.3788932141        8.6366968680
 Se        12.8261023693       12.0593797488       11.8496147078
 Se         7.3824823882       12.5681256000       15.5644182709
 Se        14.6996226547        9.5268219044        3.1383816079
 Se        14.4990384484       10.7241540160        7.6483065229
 Se        16.5704116531       13.2118509335       10.4915928471
 Se        12.3281702909       10.5187303321       16.2680824704
 Se        17.5017217275        7.7649234442        7.4872058763
 Se         9.9528058257       17.4368759789        8.3113038980
 Se        13.3209697154       16.2761357490       11.8039635468
 Se        14.0662241903       13.6484541159        3.7711824279
 Se        12.8787023204       14.9558397403        7.8088848519
 Se        17.1809194352       12.3364402627        4.6628851885
 Cd         5.7503594912        5.2909608803        6.3206449632
 Cd         9.2503776697        6.6556652629        8.7003045224
 Cd         3.3941212505        8.3775392748       11.2504861509
 Cd         7.8777538861        6.4713888526       16.5676637483
 Cd        12.5556813276        4.4806675856        7.6860109643
 Cd         7.7731790686        3.5426903168        8.8617528089
 Cd         4.3486268041       10.7845166582        8.4314895176
 Cd         5.7683930552       13.3608366738        7.3733751423
 Cd         6.7884773945        8.8880500955       11.6664955389
 Cd        10.0080075334        9.3056746266       19.1482234881
 Cd         8.8325333989        9.0023296324        4.8457467497
 Cd        12.5952859995        8.7473625334        6.6284176986
 Cd        10.1187373289        8.0489104683       12.5852043586
 Cd        12.9688491709        8.0954983954       15.5393137545
 Cd        15.3276763298        6.1750258442        7.8277368740
 Cd        13.1666079543        7.3657609069       10.8364179599
 Cd         9.0979213658       14.9238437862        8.7864880130
 Cd         8.8425295525       13.9132491136       14.0917296824
 Cd         6.3728933204       16.6684817732       15.1657144125
 Cd         7.7943853830       15.4025261504        1.6043606507
 Cd        12.4405574818       12.3071062813        7.6201060706
 Cd        11.0630578071       10.6805616445       10.4589387599
 Cd        11.4132664242       11.6369593318       14.0509911742
 Cd        12.0114439727        9.7028973395        2.6475455391
 Cd        14.9143704893       11.0900610611        5.1596839252
 Cd        14.4222460970       14.6134573943       10.0437918667
 Cd        16.3111517467       10.8868051499       11.7084023021
 Cd        17.8672370775        7.6951830498       10.2088899585
 Cd        12.0883073823       15.2181413357        2.7436235624
 Cd        11.6747755959       17.0941599677       10.1234229459
 Cd        14.7108296390       14.8265532378        5.9758779522
 Cd        11.3618928096       14.2616252764       11.8762039225
 Cd        19.2554392335       10.9216716191        5.7598560287
