417
 i =     9700, time =    19400.000, E =     -8967.2553471039
  O        14.6580735509        2.1692907280        8.6631105033
  O        16.0608091884        0.9715448870        5.0431465812
  O         9.6385223312       17.3597222272       16.8875707673
  O         6.2325667425       11.1931383217        0.2317339440
  O         2.8004089837        6.2781807498       10.5484119007
  O         1.8730749737        4.7637708493       12.4448271857
  O        16.8002872514        6.1630562651        2.1115859879
  O         4.9802621932       15.7418678566       14.3227810920
  O        15.6727446289       19.1842255442       16.1777248492
  O        13.1454213359        2.5610487654        6.0600488016
  O        11.5833013324        2.3927085826        0.9606746845
  O        13.2323653902       19.4070875306        4.8786848396
  O        11.9241050113        7.5834301498        1.0677900016
  O         5.0767620918       19.0422833148       -0.7362452419
  O         7.0011530092        3.9672153269        4.4951845116
  O         2.7917321411        2.0137940585        5.6448803739
  O        19.1620928744       15.7959047855        3.2060436273
  O        14.5990096320       19.8009319870       12.3447321893
  O        18.5399182963       21.0539800677        3.2802561880
  O         6.8364905786        5.1002267465       15.3178059215
  O         1.7896023959       18.2261322867       11.2563834315
  O        16.9080476248        2.9352700051        9.6790201684
  O        19.8105901148       11.8218089097        7.7961052766
  O         2.9669544760        3.1332962810        0.4697742988
  O         5.6073240519        9.5522583659       17.6732565700
  O        17.5859554169       13.4224759601        0.9216712344
  O         3.3530200275       10.5013385415        6.6029105865
  O        18.6311720453       19.7286417798        5.6215678467
  O         0.7182031111        8.5548810449       12.5155965093
  O        18.1730212747       12.7618711997       17.7424778970
  O        16.1444355719       16.5863168664       16.0970235545
  O         4.6366556055        6.5979536604        4.6811012113
  O        13.0341434972       19.7798518594        7.6264441383
  O         3.8329075901       19.7210145670       11.7009493724
  O         6.9710470566        8.7818395070        0.4401393871
  O         3.9539218131       19.5171482897        4.3147209453
  O         0.9627565283       11.3112040704       12.3768935278
  O         9.6796063364       18.6599575341        4.7160058129
  O        12.5397344008       19.6047055098        2.2768345811
  O        18.7928233317        6.8714081796       14.3324134209
  O        10.3587260999        6.4416800748        3.0934851557
  O         2.5699234003        7.0676686259        6.4396284636
  O         9.8781854153       20.1710106375        0.3788132774
  O         2.7554224999       19.0264694559        0.7463835107
  O         0.7628108436       14.8041890771        6.0657121280
  O        20.0536473624        8.2326897428       -0.7926571083
  O         3.4337749968        9.1043522444       16.5426267507
  O         2.9556686200        4.5709516337        5.1901097219
  O         2.3845865881       15.7879092517       13.7467909121
  O         3.4477885148       19.6501408595       16.5983042245
  O         2.2588755766       10.7239673543       14.6734559776
  O        17.3780660458        4.4985582422       16.1218528029
  O        18.8044973889        5.9632422009       -1.0413928004
  O         5.2927510008       13.8640066523       19.5356742444
  O         3.2787411768       16.9957607331       16.9699576115
  O         8.1264145988        5.1336309567       18.2450670150
  O        17.1883739084       17.2569896145        9.0492493639
  O         7.1549797379        6.6385986431        2.0689673428
  O        19.0565900786       17.3257551755        0.9419212412
  O         8.1931987760       18.6206696763       18.3883144817
  O        16.7361416877       11.5022633934       13.5419257895
  O        19.0164906540       16.7674591156        7.4554456832
  O        19.9324145341        3.2490862288        5.0163786983
  O        13.1243295264        2.5974843801       12.1345620674
  O         5.1426908717       18.4077337781        1.7750847441
  O         7.1515064702       16.3872332383       17.4324296480
  O         3.4348977299       17.9011962070       14.5307221875
  O         8.2692381279       10.3575927207       18.0488916299
  O        13.9051572369       15.2111851391       15.3218063301
  O         6.0044714091        1.9442380153       11.5142422957
  O        11.4399125889       16.0420068106       15.6624048405
  O         9.9734561847        3.2250788359       -0.9416170864
  O        15.8186497708       11.3202366264       18.4541807386
  O        19.0389538231        5.6292169341        3.5572666906
  O        10.3175076144        5.4087265998        0.4870630828
  O        19.9297514170       20.3089937660       13.3909817490
  O        18.4632013405       15.2546798785       18.5178906993
  O         6.0230235837        1.6566679001        5.2213047947
  O        14.0524720343        1.3984131616       17.2299526093
  O        16.1553725024       18.8312022533        0.4162908184
  O         8.0134221944        9.1600159327        2.9080949436
  O         6.5335600715       18.8772037085        3.9957385869
  O        16.6593194338        4.5151378441        4.1932333263
  O        19.1781272304       11.9305769799       14.7360479509
  O        11.9948554935       13.9034500350       16.8837714023
  O         4.7802022078       12.9821562825       16.9183482374
  O        20.1595843496        2.2119675043        1.4000531130
  O        13.2902892787       17.2225609336       -1.1325654450
  O         1.9060288845        3.9743814624        9.8932479959
  O        20.2570229448       10.7629889961        0.1887778941
  O         6.8602491525       18.5793552587       14.3907622658
  O         1.9249114213       13.2347375289       13.9096978841
  O         4.4408524229        4.6613242644       18.3060886998
  O         1.3010009905        8.2824201264       15.2440683875
  O         6.9170540813       16.6131218631        2.6288618199
  O        14.2369608254        5.3041856164       18.8882603183
  O         2.6529106194        4.0477546343       14.8252728228
  O        18.1404704838        2.9219657041       14.1397909719
  O        20.8275643152       15.2077204812        8.5642518040
  O         4.2188878187       17.8383234543        9.7129193152
  O         1.2343117651       18.3825331820       15.8364019564
  O        18.1454025033       10.0885547287       18.2121534816
  O        16.2714509170       13.9972061382       15.6067812519
  O         5.7323205867        3.3229942843        0.7927464831
  O        18.8238892371       17.8369561569       17.8728394889
  O        18.1163351861       18.3425518168       15.5786348137
  O         1.4647960759       16.3607929127       -0.7806389487
  O        10.1018041296        1.1965070865       14.3524219510
  O         4.0749764566       17.0197929488       12.0779251088
  O        18.4092309667        9.4956495218       14.4514173611
  O        20.4596886148       10.2818746656       17.0028044145
  O        15.2568969320       19.1182961135        9.2057641103
  O        18.6787723103        9.8230812317       10.6277159072
  O         7.6065269047        1.9104839973       14.6729090094
  O        15.9942464946       17.9483151919       13.9043721673
  O         4.2972909531        6.0763819206        1.0805735089
  O         3.5443373171        2.7703160432       12.4566243199
  O         7.6664075745        1.4489176727        9.4752735679
  O         3.2794726415       14.6659472152       18.0369715937
  O         6.0478079453       20.2019696164       16.3852948057
  O        15.1154909095       16.3660637210        0.7220989518
  O        16.7869700482       15.6263116535        6.7932262975
  O        10.7093451461        1.5755346844        3.4758616634
  O         2.1272600746       16.9388034477        6.4188921608
  O         3.8454224459        9.5476023892        4.0196488476
  O         3.3000447395       14.3617347897        3.2056170898
  O        13.1896618233       14.7883352853        0.4320882307
  O         2.1877881036        6.1159245850       18.3669043275
  O        12.4299353954       17.2359892679        3.7097901121
  O         3.6302853452        8.9972322963        0.1141240789
  O         4.5278797350        5.1539053511       13.1541317902
  O         2.4773889120        1.5080825760        8.8386019457
  O        15.9901235876        4.4547334455       13.8001980394
  O         7.2672005295        1.4305679218        0.1349501220
  O         9.1630336903       16.2124100751       -0.1934924929
  O         4.8691107472       12.2527362212        2.2305071752
  O        16.7879649487       18.2710331814        6.6873497257
  O         5.3022265372       18.8118249487        6.4691051344
  O        16.0646859906        3.9517457108        7.2905275619
  O        12.4111279469       19.9304915675       15.3828530631
  O         7.9567477841       18.8370283127        1.6902877972
  O        19.2675460194       15.0089959126       13.6118044020
  O        17.0841494438        1.4708338828        7.5145077476
  O        18.5888715418        2.4879842011       11.5737254448
  O         1.8460471459        4.4576169560        2.3520287885
  O         2.1324488208       12.1380854792        1.9788906506
  O         2.1656945954        9.8723257708       10.6724685912
  O         2.0223408987        6.6892451626        3.8022135920
  O        11.6810821407        1.2100874806       17.8727729606
  O         5.1049159372        1.1056830932       13.8214232002
  O         8.2818751014        3.7284163410        1.0993878798
  O        11.6685138716       13.8169108178       14.2141567795
  O         7.1237697879       -0.7345356058       10.8953328715
  O        19.4030873085        2.3538147679        9.0150420608
  O         4.4584781510        7.1826825515       17.8578859803
  O         7.1613580522        2.0268138821        2.7669452954
  O        10.7021124722       18.0756129674       14.3538679264
  O         4.5635270490        2.2247944566       17.9315714109
  O        12.0151839208       19.6282943703       12.7443038588
  O         8.8205274402       16.1128112486       14.6887152573
  O         2.9946256050        2.0921706659        2.8801112422
  O         3.9516757459       16.7754854180        0.1289748586
  O        18.6496385699       18.5039417782        3.2337399884
  O         7.4825112564       13.0746361785        1.5429156966
  O        18.0863757001        3.8166498281        1.8271315803
  O        15.0464993201        1.7087993304        0.8260171527
  O         1.4028919046       19.7831509572        4.1221161120
  O        20.2353210845        6.6393638047        1.3533955534
  O         8.6291145568        1.7742224690        4.9132907490
  O         9.1494344064        3.5182756723       13.3353844296
  O        21.1874578417       14.4815516791       11.5357390929
  O        12.9934312002        2.8933449452        3.1102050411
  O        14.6084412872       18.2139518425        2.6225027900
  O         3.0704885568       12.2063153264       18.9243834076
  O        16.8953568829       17.0097623110        2.4122152859
  O        17.7023617346       19.8481428901        9.9274036444
  O        14.8969137214       14.9430339527       17.8085745620
  O         8.3978720321        1.2825165138       12.1383968052
  O        15.3316925274        7.5583907557       15.9162022362
  O        17.0009341275       11.1093272890       16.1063212344
  O        16.6062864388       20.8423392989       17.9342661656
  O         1.7967331173        3.6894909039        7.3728627745
  O        17.1233429618       20.1626218373       13.0509548199
  O        15.6486041731        2.4509028488       15.4944994106
  O        10.9142317501        0.9729885838        6.1493655739
  O        12.3979092639        3.2083912377       15.9116617620
  O        16.4925800416       18.1200803864       11.4542616178
  O        17.8145201288        1.4930951504        0.7212983644
  O         1.3826509463       10.1916724691        4.8196379660
  O        20.1119135311       13.4515265879        0.0094318128
  O         3.0647321467       11.9956566743        4.3669483527
  O         9.3239748476        7.8932356856        1.0153031019
  O        19.4763784951        5.7990145585       10.7570084473
  O        13.0008760686       19.8760706013       10.2847587723
  O        19.4540914420       20.3568441383       17.0558632235
 Na        19.4281128333       13.6541863861        2.6311649244
 Na        11.9507357844        4.7944876348        3.8161628489
 Na        15.4836405713        9.4181965014       17.0282762675
 Na         6.1502963683       16.6625383261       10.6005678843
 Na         4.5958352517        8.2974108110        6.2893655407
 Na        17.3115105632       13.8986313236       13.0419149093
 Na         1.7298331544        1.2720632410       11.3093790121
 Na        18.4803508322       13.8955580980        7.5929040682
 Na        17.9562294957       10.4511545142        8.2961098634
 Na         7.6363102513       16.8971414573        4.9064385639
 Na        10.5883049666        4.2311807049       14.9838392184
 Na         1.9494896642       10.2066687005        8.2218789726
 Na         6.5873494605        6.4188944821       -0.2712807115
 Na        10.3055751287       17.9006757470        2.5439624228
 Na        13.6114346567       17.5651632006       16.0390797149
 Na         9.7983703868        1.0891164278        8.4407045273
 Na         8.4911801267        4.9758038475        3.1112984009
 Na        18.5765561032       14.1226409980       15.6990435312
 Na        13.8769897943        3.5442790307       14.0544508930
 Na         6.0624936379       10.2971841428        3.6919878250
 Na        16.5692662458       11.2143047001        1.5671949612
 Na         0.7687159936       13.3203487020        9.8314527654
 Na         6.6965109569       18.9125584742        8.4195887459
 Na        13.8866469174        3.6428286021        0.7207657357
 Na        19.8261536005       16.8359374028        9.7532085367
 Na         4.1103223318       17.1616411612        7.4671025665
 Na        16.0054112758        7.0955778088        4.2240994213
 Na         5.7622151437        6.9972320416       14.0885125293
 Na        12.2266071619        6.1891577481       18.4753192548
 Na        20.0323236902       19.4260343794        0.2058323801
 Na        13.4329954496       19.3222222548       19.3222622213
 Na        11.4105718643       17.3390002134        5.6125452113
 Na         2.9082290128        5.7988050048        8.2775607758
 Na         8.9416881333        9.9689018158        7.3135336776
 Na        10.9594425506       12.8012470437        5.0391355851
 Na         2.3339715183       12.9869096730        6.6146350173
 Na         3.5651256696       14.2420615197       15.4228066197
 Na         7.5318388512       12.3877430663       10.8420836890
 Na        16.8136267911        5.3587924264       -0.1507613324
 Na        20.8529030201       19.2628572208        7.1006074822
 Na        20.7195906794        5.7540046911       15.7044299655
 Na         4.8518609341       15.7592296282        2.1734192354
 Na        11.1738138230       15.6953232402       -1.2648846976
 Na         3.2904811881       15.1753410779        9.9940217613
 Na         1.6842204674        1.7273562439       15.2710485717
 Na        15.2859820231        1.7240672618        3.0903332355
 Na        18.7104901911        4.9795882262       12.8780958536
 Na        13.5226712746       12.8321601355       18.6318287003
 Na         5.4546179177        5.1731429428        3.0487183080
 Na        15.1195879514        3.3137342917        5.3254338209
 Na        16.0703610867       14.6078492951        2.0135461760
 Na        16.2200808525        7.0767945655       14.0037105366
 Na        14.6293355039        5.1843899929       16.7686170625
 Na        20.0049312693        7.9743546690        5.3431587459
 Na         4.4936675447        4.8284272125       15.8099489528
 Na        20.2716824566       17.9714601232       13.5639548050
 Na         3.4366288185       11.7612942190       11.5067589846
 Na        17.5623645413        6.7317442597       16.4404574450
 Na         6.9153538214        4.1240327085       13.1337159640
 Na        18.7685112917        3.1265057253       17.6430989125
 Na         4.4037344550        1.6839659282        7.3274869607
 Na         7.0938606555        3.1650673433       16.6699602523
 Na        11.1592347249        4.1257280968       11.7461062606
 Na         5.0027283305        5.5970368789       10.8024986862
 Na         6.8614884516       14.0206643868       17.6494288710
 Na         8.5097703802       17.8928403296       12.8779608643
 Na         4.9154162129       11.2230300704       15.6254622471
 Na        10.2632315243       12.4251503620       17.1704123458
 Na        14.4361163961        6.7371078670        1.2801884309
 Na         7.9783219378        9.8264249469       15.6879221939
 Na         4.6085241110        7.7415231267        2.5026496884
 Na         2.3279731290        9.7352594334        2.1362476944
 Na        18.1847159038       15.2586150884        5.1087661895
 Na         8.8469238244       11.2221664123        1.8011988224
 Na        14.9874157367       12.1798650987       14.9394159270
 Na        15.3909465087        3.7209430555       11.7027808524
 Na         1.8009808276       16.2900402907        4.3034540831
 Na        18.0476880572        3.8842463644        5.9613777465
 Si        16.0468199401       19.0784303454       12.6816228970
 Si         8.4650981538       17.0227948390       18.0483266127
 Si        18.5932889398        1.6682480703       13.0684742279
 Si        10.5277098934        6.8736040089        1.5139125704
 Si        10.7125718560        1.9351950030       -0.3367043784
 Si         3.0791377124        6.2499434944        5.1390374745
 Si        20.0672685966        6.6363639811       -0.3640231316
 Si         7.7771005600        8.1375189369        1.7196706613
 Si         2.8670123918       18.2345689998       15.9950464967
 Si         3.7632479017        6.0832256937       -0.4479340245
 Si        19.2413601411       18.8678765245       16.6813893728
 Si        17.0252082379       19.8482900781        6.1433028740
 Si        17.1859343885       11.4191226726       17.7373275996
 Si        18.5654486854        2.3260143613        1.8682817667
 Si        20.5467706920       15.8886426592        7.1820807095
 Si        19.2897636161       16.5942476914       -0.5014721846
 Si         9.1439598812        4.4779452559       -0.1586788676
 Si        19.4901948039        8.2764440599       14.0927762225
 Si         4.1513130853       18.4366498768        0.5072437645
 Si        15.3650617200       15.1527851847       16.2135833501
 Si        15.6523506818       17.6773311448        1.5062748422
 Si        17.7387746692       11.0113592499       14.6505879835
 Si         3.8144762942       16.6514343016       13.5916093974
 Si        20.4872491036        5.8553003538        2.7419392450
 Si        16.2025400595        2.6771381993        8.1694657156
 Si         7.0792457768        2.6328997863        1.2204109563
 Si         1.6108787507        5.2959822713       10.8896796011
 Si        12.5997759583        1.0454997778        6.1415498313
 Si        18.1759552712        2.0179802083       10.0734127551
 Si        19.7634212092        9.7483364856       18.3564893306
 Si         9.9897297034        0.8107375554        4.7042280387
 Si        14.0013598760       15.8990523203       -0.4903206902
 Si         2.0485178873        9.5756818740       15.8873508734
 Si         7.3379086953        0.8623562374       10.9599500015
 Si        16.6106651146       18.6247555839        9.8728748714
 Si        20.1113152261        9.8950721078       11.4744057823
 Si        13.9735904489       20.1009960454        8.9508351893
 Si         2.9989148079       10.4891932405        5.0202095285
 Si         4.4036157332        3.2596831715       -0.1918400334
 Si        16.5333526811       17.9658136095       15.4311421228
 Si         6.0184082508       12.6006203232        1.0442570575
 Si        15.5822495842       20.6906217470       16.6608796495
 Si         4.6418996786        1.5716293757       12.3061887877
 Si         3.0497631472       16.1933613701       18.3690407490
 Si         2.8077322109        1.2090950974        4.2296788599
 Si        12.5766742243        1.7793848008       16.5315554085
 Si        10.1005525254       16.8385602352       15.3661518497
 Si        17.4304913876       16.9882442209        7.4235244374
 Si        18.5110367642       13.6895878562       -0.2901883581
 Si         8.8711318439        1.9780640520       13.5205920303
 Si        17.5675838102        5.0119466561        2.9783467660
 Si         6.3726067618       20.0463706111       14.7365576094
 Si        11.3445990884       19.5642748659       14.2101549105
 Si         7.1767706797        2.3897978744        4.3588682535
 Si         3.4068991469       18.2561213506       11.0583820761
 Si         8.3501090101       19.5346989268        0.2672774441
 Si        13.1561853778       20.4281350374       11.8641496146
 Si         5.4454872872       19.4530482374        5.0713710071
 Si         1.2056879434       11.7415940572       13.9158816697
 Si         1.3100604299       14.6354035516       13.0470725184
 Si         3.4111165262       12.8030276587        2.9999013334
 Si        13.2175256637       18.5823378624        3.4557078160
 Si        16.8465823239        3.6184680480       14.9162785798
 Si         4.8231917060       20.0670494132       17.4503905521
 Si         1.6130082298        2.8242437024        8.7646665745
 Si         4.1519029680        8.8154344642       18.0697785930
 Si         6.6199144622       18.2130363587        2.4788719854
 Si         2.1125719689        3.0005159589        1.8740436925
 Si         1.7103230002       12.1835178935        0.3772217386
 Si        16.3268063512        1.0714089939        0.2214873428
 Si        18.5154891322       17.0830464991        2.4967709397
 Si        12.2944996191       14.6566099388       15.5021554250
 Si         3.1998853019        4.2508334872       13.2845250440
 Si         6.8984938602        9.9822637823       -0.6782625621
 Si         1.8884168717        3.4566460530        5.7448150872
 Si        11.9991166169        1.8216112843        2.5003959069
 Si        19.1828052850       19.7909199419        4.1151581290
 Si         4.1626356325       13.3461140970       18.3651758206
 Se         4.9092347734        9.3954829476       13.2314731916
 Se         7.9758679263        7.2976198079        6.4109266185
 Se         5.2657467326        4.2743993726        8.2859798100
 Se         8.0026393761        6.5588219723       11.3285411825
 Se        10.2631042316        3.9465602160        8.7635029271
 Se        13.9087974761        5.0833218717        9.6232692889
 Se         4.9924675051       12.7712427787        9.4108648472
 Se         7.0595698286       11.3114716517        6.1159249402
 Se         5.2727206126        8.2139178356        9.2811250090
 Se         9.2440338225        9.9740858622       12.5157852232
 Se        11.0733098185       10.0199757728        4.8671857009
 Se        11.2449423400        8.3841854133        9.0402888620
 Se        12.5469203207        6.5980588534       13.0901996626
 Se        10.2894963225        7.8464552398       16.0979315434
 Se        13.5768510368        6.2999295713        5.8731774858
 Se        15.7076315626        8.1961144047       11.4094419275
 Se        10.1030170985       14.9619017338        3.4559776692
 Se         6.8691534805       15.9931225971        7.4924078115
 Se         9.1462798036       15.1168032681       11.3857836236
 Se        11.2564799930       11.0770788340        0.5056115695
 Se        10.2003261702       12.3077455647        8.4673523070
 Se        12.9037400926       11.8778955066       11.6090888825
 Se         7.8574865813       12.5327996090       15.5222771104
 Se        14.9717537070        9.3899989654        2.9248910772
 Se        14.5143560000       10.3322023236        7.5817686064
 Se        17.1175187859       13.0551891907       10.1464483526
 Se        12.7052779777       10.3775397339       16.0454558309
 Se        17.8439277415        7.5567638345        7.4136842664
 Se        10.3366534693       17.6088675640        8.2712073574
 Se        13.6453471454       16.1018318792       11.6439132125
 Se        13.9414245475       13.4484003576        3.9557344066
 Se        13.2710115791       14.7346429306        7.8043010387
 Se        17.2693435234       12.4564000638        4.4888039112
 Cd         6.2174977190        5.4530828151        6.0758477429
 Cd         9.2569997969        6.4697364684        8.7711556912
 Cd         3.5230676435        8.2733059082       11.2693574644
 Cd         8.2619794382        6.3128158496       16.1567827326
 Cd        12.6607366374        4.1757744632        7.4563617170
 Cd         7.5967511281        3.4842537861        8.8133806990
 Cd         5.3725244081       10.4833840089        8.0407892228
 Cd         6.3596273875       13.5088779207        7.1193550895
 Cd         6.7508827608        8.9438813658       11.4493835332
 Cd        10.4092661015        9.1396088776       18.4417573001
 Cd         9.3415551923        8.0189550508        4.3842668752
 Cd        12.5692778666        8.6998824021        6.4501412561
 Cd        10.1263471582        7.5077625334       12.6449886786
 Cd        13.4413525533        8.0360703642       15.1514914607
 Cd        15.4469213365        6.1392902507        7.6768845879
 Cd        13.2337532088        7.5450761673       10.5362347836
 Cd         9.3998434269       15.0851080101        8.4692736232
 Cd         8.7870133063       14.0188734198       13.7720264205
 Cd         6.6806126566       16.7347831715       15.4543514843
 Cd         8.4248268842       15.1120903662        1.6118587964
 Cd        12.7778748477       12.1844430071        8.2111283636
 Cd        10.8477974556       10.6436878301       10.4691110662
 Cd        11.4707972534       11.2471911673       13.8317272495
 Cd        12.3160268256        9.4393137917        2.4662538354
 Cd        15.0032769048       10.9600438293        4.9403615668
 Cd        14.7713804947       14.4251741217        9.8997879109
 Cd        16.4981240357       10.6830632538       11.3911874922
 Cd        18.3180349840        7.3493159257       10.0204001288
 Cd        12.4541339158       14.9628026667        2.5008780452
 Cd        12.3383508496       17.0500900136        9.6823138668
 Cd        15.0047669479       14.8648967224        5.9530190262
 Cd        11.8588577169       14.3168755722       12.0809845633
 Cd        19.2639785750       11.5009616334        5.7356947829
