417
 i =     6500, time =    13000.000, E =     -8967.2396362448
  O        14.4246835425        2.0816515084        8.8275897291
  O        15.6935843220        1.2346660919        5.3306434093
  O         9.3293799622       17.4348213409       17.0029669140
  O         6.3163677080       11.0971296857        1.0550028896
  O         2.4713961179        6.5727563609       10.4604555045
  O         1.7003640105        4.7564407585       12.3625174357
  O        16.3354919464        6.2362316467        2.3526790912
  O         4.8098978895       15.8333624270       14.4292367046
  O        15.2374971519       19.2423943158       15.9270459070
  O        12.7207312510        2.5745259055        6.2790272902
  O        11.3907043942        2.0848011202        1.0682463573
  O        13.0979250997       19.4429266719        5.1928282522
  O        11.8501947216        7.0793455656        1.4573116375
  O         4.7155226888       19.0957737382       -0.9793757927
  O         6.5100282171        3.9484802418        4.6289113567
  O         2.5217273561        2.1101705184        5.5945085800
  O        18.9444487089       15.8721689279        3.2119319332
  O        14.3949451470       19.5791221974       12.3715282882
  O        17.9861542958       20.8444590390        3.2756952707
  O         6.1349668307        5.2806641685       15.5108807304
  O         1.9372185736       18.0539781923       10.8943365092
  O        16.6282588976        2.9506999609        9.8220183920
  O        19.3003954645       11.6984822724        7.8338364746
  O         2.6564229081        3.3709741393        0.5546675456
  O         5.2924802719        9.8176108467       18.2428876946
  O        16.8574839217       13.7288614955        0.9986106929
  O         3.1752551174       10.8349385649        6.6326952397
  O        18.4330860181       20.1313117503        5.7839975997
  O         0.4213316831        8.7260992825       12.7937026459
  O        17.7541656815       12.8034438182       17.9784657985
  O        15.7634356140       16.6993045031       16.3860422489
  O         4.3367524563        6.4873357788        4.9244928429
  O        12.6509131636       19.7007592773        7.7438623696
  O         3.9247710535       19.7061172349       11.5455759637
  O         6.8069829643        8.5056075012        0.6470462388
  O         3.7590288812       19.4969970642        4.2967826700
  O         0.7601926739       11.3064036535       12.6901990373
  O         9.1641752639       18.6538619652        4.6604207472
  O        12.5601392414       19.7350778906        2.5282132660
  O        18.5995777061        6.9771606542       14.6078059290
  O        10.1900676887        6.2706001993        3.2829788279
  O         2.2633916257        7.1625707752        6.4635513794
  O         9.4214605786       19.8288337749        0.3838291211
  O         2.5684944680       19.4111242462        0.5674974207
  O         0.5630507968       14.9297539812        6.2671044938
  O        19.3445359887        8.3858283815       -0.6221894684
  O         3.0982343800        9.5396912173       16.8931053376
  O         2.3053107559        4.7700808821        5.5349768817
  O         2.2933588262       15.8305403300       13.7609295526
  O         3.0832181962       19.7449775919       16.5403678162
  O         1.9592932353       11.1984111271       15.1224140174
  O        17.3758550600        4.3946731148       16.2853876446
  O        18.5845903344        5.8076964521       -0.8188538320
  O         4.6587539801       12.5281972449       19.1105802578
  O         2.9586325301       17.0359677389       17.0494658377
  O         7.6154158477        4.8713571311       18.4639092153
  O        16.9612697114       17.5842122811        9.0432154849
  O         6.9275596169        6.8383521141        2.7125154156
  O        18.7841299213       17.5001766706        1.0321515937
  O         7.4689089289       18.4411433267       18.5433213838
  O        16.3518647945       11.6249083460       13.7602357521
  O        18.7982094838       17.2283579490        7.2376312352
  O        19.6716489417        3.2343284981        4.7791346151
  O        12.8818184725        2.3256973518       12.5320835374
  O         5.0203035728       18.8346795724        1.6194327632
  O         7.1035856137       16.0559034442       17.4410519659
  O         3.3616888853       18.0310208639       14.5648803054
  O         7.8700156605       10.3995224879       18.4239434562
  O        13.5016297955       15.3264039478       15.8805924286
  O         5.9715639772        2.0240671519       11.4460552738
  O        11.1787074062       16.0720663519       15.5787809131
  O         9.6030259170        3.0507096704       -0.6638846549
  O        15.2468274254       11.7147979056       18.5590732694
  O        18.7150204364        5.8602492920        3.5650901680
  O         9.8289005427        5.2339333552        0.8285593538
  O        19.5343379969       20.1199607524       13.2841011337
  O        18.3420847744       15.2873121960       18.6253671248
  O         5.7843834859        1.5396551028        5.3632975227
  O        13.6092595584        1.1817282425       17.4017482465
  O        15.9862383104       18.9141760689        0.9705075366
  O         8.1148190673        9.1814408311        3.1585766736
  O         6.0412811065       18.6292444896        4.0353386099
  O        16.4356823754        4.5656955699        4.3433220521
  O        18.7257826266       12.1307189733       14.8291823994
  O        11.5359852350       13.9957054155       17.2179275166
  O         3.8431873286       12.8224839808       16.6345708171
  O        19.8880857726        2.3309867830        1.5321013811
  O        13.0056159580       17.3474359743       -0.8897807800
  O         1.7221518678        4.2136480627        9.8153242571
  O        19.8907805689       10.6787683295        0.4930046960
  O         6.8007288658       18.6255632615       14.6258816397
  O         1.3564465709       13.5958668322       14.0801348648
  O         4.0243244098        4.8970259236       18.4610174921
  O         1.1068690414        8.7467834590       15.4111151480
  O         6.2719296147       16.5707877708        2.4221629262
  O        14.2242859252        5.4685232034       19.1183629742
  O         2.5974408938        3.9716706815       14.7402697982
  O        17.8806506257        2.4995480458       14.5131955804
  O        19.5838350563       15.1406440086        8.8632820999
  O         4.4863518242       17.9247045945        9.6945693096
  O         1.0274976614       18.2982807559       15.6440633651
  O        17.4990414957       10.2815142877       18.5521844083
  O        15.8494125675       14.0680445276       15.9738548998
  O         5.3546354693        3.4119956535        0.9909324211
  O        18.8631547780       17.8549464782       17.9713627911
  O        17.7295563647       18.3305621210       15.6065404848
  O         1.3269935607       16.2316043100       -0.5340798805
  O        10.0489672458        1.4504525505       14.1220410976
  O         4.0608342006       16.9996830816       12.1265108240
  O        18.0031684889        9.5974265391       14.5750081619
  O        19.8866052818       10.5857523371       17.2300968131
  O        14.8503006888       18.9045471858        9.3665967474
  O        18.2886392928       10.0764364329       11.0276369746
  O         7.5647558110        1.8434796304       14.7809189134
  O        15.6711606106       17.7061605501       13.9766991432
  O         3.8037656747        6.4556567819        1.1684827448
  O         3.5061449455        2.7961550949       12.4181902454
  O         7.7662315145        1.5204677273        9.5559585017
  O         3.5072070813       14.7857007535       18.3508597818
  O         5.7193989165       20.4580972155       16.3505933094
  O        14.6498012829       16.6360938387        1.1125701292
  O        16.4805498736       15.7095653281        7.1318480211
  O        10.3256875051        1.3838243070        3.3752694533
  O         1.9854389085       16.7726057785        7.6501074377
  O         3.7797394137        9.7587626435        4.1048100850
  O         2.7494966564       14.5274124602        2.9724950017
  O        12.7528996817       15.0701124200        0.6099091793
  O         1.7713013308        6.2995717865       18.5618562421
  O        12.2004822250       17.3112950246        3.7659836968
  O         2.9965694637        9.4033921035        0.3701560866
  O         4.2953508237        5.2827227646       13.0843290234
  O         2.1718983687        1.5215549983        8.9585156914
  O        15.7451829264        4.1456376511       14.0314312666
  O         6.9697545117        1.4117555801        0.3279443256
  O         8.8849618234       16.2591726892        0.0149516119
  O         4.5798733877       12.7522413617        2.4508558651
  O        16.5254691585       18.4043818026        6.6485152217
  O         5.1346604534       18.8059609901        6.5808797376
  O        15.9379274703        3.9389776716        7.3904561169
  O        12.0267106117       19.9066228794       15.4327154746
  O         7.6669129342       18.6936508729        1.8190673835
  O        19.1959249901       15.6235946161       12.9650863411
  O        16.8425607694        1.5001011170        7.6635221165
  O        17.9967934053        2.5924753112       11.9769986259
  O         1.6054434427        4.6314558855        2.5130580375
  O         1.9894812917       12.2479577793        1.9164769646
  O         1.6230778317        9.8608814939       10.6334944567
  O         1.8462070775        6.8156280814        3.8535029317
  O        11.1454497003        1.1448673864       17.9360355364
  O         5.0636162776        1.1554549783       13.7844184965
  O         8.0102155489        3.6389629436        1.4210448616
  O        11.8852174944       13.6695873996       14.5556035545
  O         7.1121171466       -0.4963919619       11.1834643297
  O        19.1798328478        2.4233694644        9.6744892071
  O         4.1110679290        7.4141912521       18.0165943921
  O         6.7126425436        2.0501544744        2.9522951546
  O        10.0308132068       18.2702519851       14.5508774702
  O         4.4121111215        2.3503692206       17.9722907813
  O        11.7852992498       19.3130847267       12.7433706055
  O         8.5147670250       16.2283800214       14.6995872706
  O         2.7760657262        2.2539696221        2.9866371215
  O         3.8003519767       17.0195428211        0.1662829513
  O        18.4868501717       18.5043765644        3.6712039733
  O         6.5573299168       13.6769157720        1.0336222334
  O        17.8729250839        3.9319245749        1.9895096800
  O        15.0263531752        2.0894452750        1.0574172799
  O         1.1144824630       19.8804715966        4.0875487794
  O        19.8075143560        6.9117412405        1.4507510454
  O         8.4107707967        1.9835114385        5.0212975183
  O         9.0365441689        3.9120267916       13.7645586128
  O        20.9760012606       14.2488081027       11.4952537753
  O        12.7349414911        2.9459939121        3.2106077038
  O        14.5977156816       18.3793579120        3.2650742017
  O         1.9606933864       12.6258333833       18.5507021720
  O        16.6935548556       16.8525822176        2.5817554612
  O        17.4311644944       19.7988193951       10.4004201129
  O        14.6659328192       15.2421452247       18.2263129475
  O         8.4147811803        1.7220879759       12.1066672028
  O        15.0188182474        7.2573699122       16.1263003666
  O        16.6633924633       11.0058416821       16.2550344302
  O        16.1389856811       20.3442653297       18.2004915961
  O         0.9323740043        3.4623399727        7.3803861356
  O        16.8887636447       19.8048695400       13.2458284381
  O        15.5711519531        2.3853654503       15.9515622339
  O        10.6226915386        0.9599326445        6.1236948132
  O        12.1738064627        3.1877332251       16.4025644429
  O        16.2469416106       17.8542013665       11.4205391076
  O        17.6610295849        1.5875026089        0.6708951083
  O         1.2230246568       10.0508252195        4.7961445624
  O        19.3949769815       13.4117117386        0.6292278055
  O         2.7806351191       12.1958686103        4.4156307232
  O         9.1862333117        7.6845725376        1.2669898861
  O        19.1686569790        5.7414633630       10.9077963141
  O        12.7562444834       19.9786426335       10.3482358992
  O        19.2340568028       20.2879930195       17.1585928637
 Na        19.3358088978       13.7918569487        2.7106655968
 Na        11.7890944380        4.7913007428        4.2811782175
 Na        15.3487834343        8.9973025584       17.8318453798
 Na         6.4210824545       16.8058284441       10.4246577881
 Na         4.5972550721        8.4983588328        6.2132976697
 Na        16.9676811747       13.9466296986       13.1004724454
 Na         1.8086600059        1.2732088860       11.2807245395
 Na        17.7484494687       13.7434851146        7.7236980725
 Na        17.6123541989       10.3832604375        8.7757759977
 Na         7.4859563975       17.1800540268        5.0463400260
 Na        10.5107295847        4.4439733021       15.4937488239
 Na         1.5566874229        9.9249510989        8.2698445931
 Na         6.1190192964        6.3912171384        0.2747439591
 Na        10.0833756085       18.0984546563        2.3702226276
 Na        13.2847044367       17.7780092413       16.2724710792
 Na         9.7751868108        1.0775882852        8.8699825581
 Na         8.3309941169        4.9713201090        3.5384593805
 Na        18.0881431538       14.2775333394       16.2984576817
 Na        13.5933963560        3.1556758225       14.5847245179
 Na         5.7698873475       10.6098374471        3.5706520817
 Na        16.3332557015       11.6088251537        1.6813541739
 Na         0.2089395708       13.0097350930        9.8236445596
 Na         6.1646263650       19.2500215959        8.5803061133
 Na        13.4836152805        3.7579126552        0.9347241308
 Na        18.4296798870       16.1092831419       10.7738874220
 Na         4.1557100097       16.8961406450        7.8231646960
 Na        15.6851025413        6.8595765423        4.4222143365
 Na         4.3898597913        6.8723449623       14.7415947646
 Na        12.1009105650        6.0637361010       18.7888784594
 Na        19.8067757102       19.9733204897        0.0373626134
 Na        12.9860128684       19.4537786217       19.3779464749
 Na        10.8139035841       17.3777740359        5.8584791538
 Na         2.2958751284        5.8015860373        8.2721403076
 Na         8.6894095328        9.9782259165        7.7533191524
 Na        10.5536359439       12.7629836595        5.2926939199
 Na         1.9767899788       13.0779463633        7.0196008145
 Na         3.3692415983       14.0222278433       14.9772702454
 Na         7.5345965208       12.3739143118       10.8361782993
 Na        16.3960229911        5.7238626507        0.1991903048
 Na        20.5935886219       18.8469912282        8.8034411895
 Na        20.1704696105        5.5374425251       15.7891155061
 Na         4.4441239139       15.4473875184        1.7307200285
 Na        10.8441703028       15.4253554880       -0.8010933417
 Na         2.2071901776       15.6458741543        9.9553269037
 Na         1.3337502002        1.9629586568       14.9391392359
 Na        15.2399754821        1.5333251344        3.2290305343
 Na        18.5495419786        5.0777195078       12.9412105594
 Na        13.3532210158       13.0350189295       18.7050273714
 Na         5.1550363116        4.8401311457        2.9588367707
 Na        14.8028759270        3.4009376862        5.5236148099
 Na        15.4877414925       14.7340977641        2.2758554003
 Na        15.8742666111        6.7856669677       14.0013811666
 Na        14.6287204386        5.0971531147       17.1459258120
 Na        19.4990516193        7.8345099119        5.5987955985
 Na         4.3329712741        4.1834588749       16.0748080750
 Na        20.0776412932       17.9335620520       12.8360131713
 Na         3.0336796503       12.1465969660       11.4653630738
 Na        17.4169892321        6.7736967616       16.5543659494
 Na         6.6769069531        4.4290015621       13.3951532957
 Na        18.3574060530        2.9221131309       17.9923408706
 Na         4.0915061376        1.8604543944        7.2592426732
 Na         7.2489303116        3.0460072826       16.8106148429
 Na        10.7126811982        4.0225285336       11.9051535868
 Na         4.7710622804        5.4350323446       10.8389697673
 Na         6.3598804301       14.0066392513       17.9152627972
 Na         8.1322506130       17.7159960794       12.9276467428
 Na         5.0344624441       10.7785663467       15.9360068281
 Na         9.9959757211       12.1878200676       17.5556155803
 Na        14.1147497259        6.6773019839        1.5407552682
 Na         8.6087027396        9.7379537442       15.4129205087
 Na         4.0826540547        7.6979097712        2.9590354818
 Na         1.9833313572        9.6185774212        2.3734941343
 Na        18.0884252107       15.7152212317        5.2397096479
 Na         8.9298354883       11.1960141637        2.3657399373
 Na        14.5206197024       12.1536951087       15.0752931591
 Na        15.1317639954        3.2819541857       11.8435851934
 Na         1.6338285938       16.0811263025        4.5648998263
 Na        17.7673464818        3.9830331457        6.1074472675
 Si        15.8020445831       18.7504631783       12.7455123086
 Si         8.2078795226       16.9805966326       18.1077326093
 Si        18.1108266337        1.4894472328       13.3044166339
 Si        10.2925734748        6.5863680610        1.7305532044
 Si        10.2939782359        1.6806816385       -0.1842524974
 Si         2.7425915732        6.3416347953        5.2241435278
 Si        19.6827176307        6.7780157602       -0.2399770828
 Si         7.7062162484        8.0514065029        2.0458230319
 Si         2.6267797554       18.2201711684       15.9806298668
 Si         3.3870778947        6.3133322319       -0.2996115749
 Si        19.0586612420       18.7669082748       16.6236451224
 Si        16.8336883181       19.9485899738        6.2225314782
 Si        16.6436402545       11.6225737156       17.7855431635
 Si        18.3215199274        2.3847783626        1.9532196691
 Si        19.9916322333       15.9706598043        7.5239213859
 Si        19.1632594056       16.6861612320       -0.3507653675
 Si         8.7416706156        4.3315880408        0.0625702204
 Si        19.1879765463        8.4885581357       14.3377457234
 Si         3.9124545307       18.7341422156        0.3948753831
 Si        14.9798345816       15.2590715795       16.6152717185
 Si        15.4307522765       17.7871537168        1.9856874996
 Si        17.3577286689       11.1039687667       14.8331511662
 Si         3.7068706820       16.6998649425       13.6908503058
 Si        20.2165750302        6.0154381637        2.8054479754
 Si        15.9242125010        2.6317542038        8.3380879451
 Si         6.7614628191        2.5813722072        1.4573239770
 Si         1.3562918053        5.4388165019       10.9360922974
 Si        12.3303477142        1.0410181641        6.2584915529
 Si        17.8428873132        2.0336678437       10.4755388916
 Si        19.1478979878        9.9517868013       18.5688881629
 Si         9.6193169110        0.8056479313        4.7505880905
 Si        13.6848722884       16.1157279033       -0.1351599496
 Si         1.6525673616        9.9958171450       16.2780521822
 Si         7.3363347986        1.0530145994       11.0752323722
 Si        16.2850375480       18.6724656350       10.0027659057
 Si        19.7531117972        9.9951106087       11.6966166873
 Si        13.6683561712       20.0630210028        8.9922954633
 Si         2.7885421828       10.5974774128        5.0496861061
 Si         4.1221966971        3.4206780723       -0.1820438444
 Si        16.2106414950       17.9479831594       15.5124776928
 Si         5.5123429039       12.5282651282        1.1151379422
 Si        15.1836237283       20.5386602075       16.8847403527
 Si         4.6451234781        1.5199283011       12.2592533577
 Si         2.9037299987       16.2793375949       18.4686579000
 Si         2.5798619221        1.1538464677        4.2887509085
 Si        12.1781913833        1.6555064619       16.7248257573
 Si         9.7421118058       16.9530962746       15.4696689682
 Si        17.1716136527       17.1584529618        7.5422210584
 Si        17.9735565445       13.8608427978       -0.0390358192
 Si         8.7474311140        2.3016420676       13.6308973040
 Si        17.2599277407        5.1013170637        3.1224416183
 Si         6.2807890825       20.0924598270       14.7715513990
 Si        11.0055452576       19.5359778680       14.1925218641
 Si         6.8831028152        2.4522263428        4.5174508531
 Si         3.5326482260       18.1676112267       10.9768986436
 Si         7.8157133793       19.4053676769        0.3815051219
 Si        12.9622094154       20.2361695218       11.9535366244
 Si         5.2114105467       19.4237322264        5.1391153365
 Si         0.8515148897       12.0701774942       14.2476174291
 Si         1.1855395329       14.8472321272       12.9293916775
 Si         2.9573070773       12.9893653128        2.9839107592
 Si        13.0300352891       18.7045698566        3.7081336119
 Si        16.6546247871        3.5295746467       15.1490580745
 Si         4.4675274096       20.2115429688       17.3166155874
 Si         1.1942001529        2.8045826509        8.8794597414
 Si         3.7496119570        9.0887257601       18.4052117711
 Si         6.2337520585       18.1712893272        2.4862417510
 Si         1.9135925394        3.1562402089        1.9545798630
 Si         1.1498028841       12.1899522098        0.4976556788
 Si        16.1259724130        1.0883807921        0.4567999928
 Si        18.3608715017       17.2326559527        2.6416625293
 Si        11.9819823761       14.6729598686       15.8224025764
 Si         3.0517537858        4.2624506102       13.1758944473
 Si         6.5768556336        9.9832171712       -0.1652072127
 Si         1.4624684298        3.3747387278        5.7728158930
 Si        11.7604876564        1.7980024327        2.6822313075
 Si        18.8980528553       19.9655738150        4.2480367462
 Si         3.4337080654       13.1080782216       18.1246233816
 Se         4.7300424330        9.6781810282       13.2541728732
 Se         7.7864293007        7.1119821431        6.8239947703
 Se         5.2228584596        4.1534841535        8.3554594171
 Se         7.8241978227        6.6169019086       11.5052069081
 Se        10.1092467600        3.8168895593        9.1401009557
 Se        13.8647471710        5.0280878017        9.8746780365
 Se         4.5055611429       13.2809249044        9.4517441289
 Se         6.5918064629       11.4347781349        6.0490990107
 Se         5.3000608129        8.7090005241        9.3654787225
 Se         9.3178174303       10.2596115286       12.4269452000
 Se        11.0185742007        9.8280330835        4.9694755660
 Se        11.2630955468        8.1994377514        9.1977925492
 Se        12.2027512194        6.3106396177       13.3876798523
 Se         9.8818947305        7.4000961575       16.7324251996
 Se        13.5271739177        6.1847278337        6.1995338089
 Se        15.7148382110        8.0901118773       11.6079738000
 Se         9.5845038522       14.9297452001        3.7878186689
 Se         7.2441111128       15.9089338940        7.6513810647
 Se         9.2051602762       14.6058933348       11.6292518583
 Se        11.2614765942       10.9818612780        0.7219605106
 Se        10.2596420285       12.2916635345        8.3614390215
 Se        13.1037961084       11.6480801491       11.9464734424
 Se         7.5508919802       12.4114156063       15.6693995159
 Se        14.8916743518        9.3699589544        3.0532917427
 Se        14.5570303780       10.3412057048        7.6143887027
 Se        16.5405524593       13.0195775990       10.3219742675
 Se        12.1783537538       10.4084069109       16.3405725210
 Se        17.7178390058        7.4726098999        7.7105402319
 Se        10.0031235494       17.5319029753        8.7005477142
 Se        13.3320133076       16.1798079121       12.0586061452
 Se        13.4698515776       13.6045432689        4.5480478600
 Se        12.8510381386       15.0452842123        8.2541281410
 Se        17.2717106565       12.5615678699        4.3196033696
 Cd         5.7855050153        5.5589951870        6.2887319708
 Cd         8.9915525988        6.2623845441        9.0621408793
 Cd         3.2046076043        8.5509134103       11.1725143839
 Cd         7.5770448869        6.3197858978       16.5339943043
 Cd        12.4669832604        4.2000041148        7.8415749421
 Cd         7.6137446251        3.5652546169        8.8980982481
 Cd         4.8132032761       11.0017694629        8.2236567713
 Cd         6.0860306660       13.6588311849        7.1482269105
 Cd         6.7723718791        9.0132453369       11.6653683811
 Cd         9.8429470611        9.1232541591       18.8531675916
 Cd         9.3027408994        7.9798687836        4.7108595651
 Cd        12.7882936459        8.6485725369        6.6093623675
 Cd        10.0320260505        7.4592360596       12.7128950416
 Cd        13.3015767850        8.1584833526       15.3626373603
 Cd        15.4925583996        6.0559041787        8.0251988292
 Cd        13.1742741428        7.2355227785       10.8929824955
 Cd         9.3247491315       14.8940585612        8.7667552888
 Cd         8.5722295030       14.0380534222       14.0939056905
 Cd         6.2969758892       16.6251858710       15.6875084899
 Cd         7.9621636247       15.1711638356        1.8278583812
 Cd        12.8445546927       12.3299442851        7.8667133272
 Cd        11.0181667472       10.5979718639       10.4272505479
 Cd        11.4361055076       11.3068438821       13.9471040065
 Cd        12.3102885738        9.4306566760        2.5819522918
 Cd        15.4254210585       10.8396713985        5.2184889144
 Cd        14.5095951154       14.6263334641       10.1779760335
 Cd        15.8045066302       10.7049720404       11.6677684356
 Cd        18.0964136570        7.5571424025       10.2517658770
 Cd        12.0666593770       15.2979095593        2.7729592182
 Cd        11.8585030465       17.0425849980       10.2025642852
 Cd        14.5371273703       15.1643663543        6.2195568780
 Cd        11.6475855579       14.2141382910       12.3731509719
 Cd        19.0563038721       11.3139531673        5.7579591420
