417
 i =     8600, time =    17200.000, E =     -8967.1812111424
  O        14.5752990894        2.1595246449        8.5137805441
  O        15.8973002092        1.3711118532        4.9612018339
  O         9.8364943830       17.5280779736       17.0392482341
  O         6.0625211580       11.0402111504        0.5401716526
  O         2.5539068830        6.4069090074       10.1681256408
  O         1.9427262361        4.7167215789       12.1833892215
  O        16.4311525289        6.0711421529        2.2890697728
  O         5.2426332574       15.7798869507       14.3120830166
  O        15.1244964700       19.0268430829       15.7691825370
  O        12.8303558297        2.7248757188        5.9518277601
  O        11.5925128870        2.0331471705        0.7638764581
  O        13.1660508222       19.4097139342        4.8992230283
  O        11.5989225092        7.4265502442        0.8756403562
  O         4.9044877254       19.0506708436       -1.0968071652
  O         6.7758032238        3.8966821342        4.2984572987
  O         2.8773018540        1.6248299424        5.4144183969
  O        19.1339191743       15.9745211383        3.2303938676
  O        14.6285009504       19.5187908850       12.1866730728
  O        18.2503910258       21.0895872613        3.1006061999
  O         6.5790118507        5.2237119818       15.4051659882
  O         1.8751232070       17.9007431172       10.8973230907
  O        16.7943280599        2.8402216729        9.6254090948
  O        19.3801182113       11.5411891539        7.7390714696
  O         2.8869515781        2.9549430204        0.3031158603
  O         5.5967200722        9.6246211372       17.6857197358
  O        17.2486340460       13.6744208836        1.1516509531
  O         3.1184179390       10.4104303752        6.5202772924
  O        18.5039510581       19.7649239685        5.4946654721
  O         0.6826578818        8.4472243600       12.6208971076
  O        17.9691218845       12.5587698934       18.0974356327
  O        15.6219339768       16.5005381476       15.8880304245
  O         4.4936797313        6.0067985042        4.4221771786
  O        12.8676463803       19.8248198906        7.5719384949
  O         3.7265820850       19.6650665990       11.5863240784
  O         6.7786643480        8.4041107120        0.2867107076
  O         3.9420174222       19.0512434640        4.1089088217
  O         0.3904121790       11.2348197960       12.4641926286
  O         9.4909403793       18.7889568664        4.3152100282
  O        12.3205772541       19.6218255464        2.4716747143
  O        18.8260638505        6.6569372947       14.3732359510
  O        10.3070695635        6.3416144977        3.0410792092
  O         2.6236126606        6.7683359666        6.1088865175
  O         9.6889092642       19.8465120955        0.0794438097
  O         2.7797784953       19.2449741534        0.5873077322
  O         0.6853940221       14.6315408933        5.8403646043
  O        19.8305530138        8.2860266179       -0.8092188291
  O         3.3170208400        9.4792236129       16.5582515409
  O         2.3980594064        4.3230813786        4.9351561384
  O         2.9143857801       15.3671166137       13.2936783184
  O         3.3415648555       19.6435217796       16.0978570374
  O         1.9580382253       10.9155534490       14.6892219414
  O        17.4209865337        4.2117907604       16.0121982784
  O        18.6482243689        6.0123603768       -1.1544635810
  O         4.8431022969       13.4948320098       19.5532871360
  O         2.9745203277       17.0696078792       16.7826174327
  O         8.1404850508        4.9597100799       18.0955938582
  O        16.9200911578       17.2582739431        8.7381694219
  O         6.9016491861        6.6741368767        2.2239004540
  O        18.7661376721       17.2603257864        0.8319183348
  O         7.8956315800       18.2767436728       18.5722237098
  O        16.5079357745       11.3632673735       13.6010903609
  O        18.8956877932       16.9053813804        6.9472542010
  O        19.8450731264        2.4147069055        4.7942626151
  O        13.2012617013        2.5165232816       12.2363990665
  O         5.2615787425       18.6487290651        1.5108253478
  O         7.4678906345       15.9028772169       17.4073300150
  O         3.2226901823       17.7500875253       14.1944821198
  O         8.1980083760       10.2101217031       18.3170505597
  O        13.6855122185       14.8036678084       15.4199846625
  O         5.7617699881        1.9096550230       11.1480340830
  O        11.2617761283       15.7490808068       15.7952735841
  O         9.6874378161        3.0698361322       -0.7074682605
  O        15.5507991145       11.4181777637       18.6104975544
  O        18.9593306099        5.5589759919        3.3167135228
  O        10.1710725458        5.3382126644        0.5618049374
  O        19.8736617023       20.2210953997       13.2390854899
  O        18.4986452946       15.0726730814       18.5799736316
  O         5.7946416853        1.3732167971        4.9709146433
  O        13.7545642632        1.4209845349       16.9213616343
  O        16.3566589398       18.8501625176        0.5776783787
  O         7.7435806771        9.3060040001        2.8244614714
  O         6.4451916541       18.3479011935        3.9380505611
  O        16.7822870107        4.4106719814        4.2802118742
  O        18.8101320596       12.0471653295       14.7080984024
  O        11.8718503999       13.5480519868       17.0467220474
  O         4.7296842942       12.5907414939       17.1264276362
  O        20.0470687449        2.1801429096        1.2563808713
  O        13.2217303820       17.1742075684       -1.0680978810
  O         1.6035515424        3.8752362504        9.7478309790
  O        20.0207209369       10.6888785771        0.2858138503
  O         7.0815008653       18.5668333005       14.3396277053
  O         1.6931455288       13.2668089905       13.8308695149
  O         4.1076294375        4.6514602489       17.9541512604
  O         1.3083879920        8.3761682850       15.2563072190
  O         6.7373446103       16.5028409170        2.2979260562
  O        14.3155072725        5.8188374295       18.9441096111
  O         2.7589698124        4.1663560456       14.6593869345
  O        18.1490779587        2.7697279387       13.9031921778
  O        20.0710033316       15.0465621327        8.5673315671
  O         4.3808928702       17.9537330313        9.5477186651
  O         0.9728226729       18.2060072685       15.4460717330
  O        17.8289892758       10.0086155008       18.4169841658
  O        16.2375359007       14.0283101449       15.5799412747
  O         5.5513532054        3.2710105851        0.4127733665
  O        18.9763079612       17.5514278599       17.6426542881
  O        17.7337369095       18.3392111458       15.3282123548
  O         1.4385819898       16.2948659325       -0.3723691199
  O         9.7624521061        0.7307012773       13.5488475926
  O         4.3427681590       17.0640407385       11.9053823729
  O        18.2669302301        9.3504012183       14.5568495686
  O        20.2625430873       10.4138684518       17.0160610731
  O        15.0092300552       18.9545660872        9.0647566132
  O        18.5654928176        9.6563313055       10.7125455756
  O         7.6721678796        1.8749578181       14.5625901734
  O        15.9862647653       17.5591848890       13.5912640532
  O         4.0801433404        6.0749184875        0.6251097352
  O         3.4831895087        2.6463254174       12.5894726107
  O         7.7253389673        1.4403737227        9.3695918117
  O         3.2765741150       14.6725559047       17.9328971142
  O         5.9515395836       20.2478550202       16.2050402867
  O        15.1072192528       16.5206217854        0.7564662032
  O        16.6125425265       15.5971714063        6.7070076400
  O        10.4548331497        1.9869672831        3.3394668694
  O         2.0454329883       16.7737781085        7.0436110330
  O         3.7143886304        9.3169352810        4.0759634724
  O         3.0619258081       14.3148466827        3.2752427078
  O        13.0242642105       14.9715806076        0.4912117837
  O         1.8372536747        6.1064790344       18.1783273982
  O        12.3721277737       17.2121459384        3.4627096851
  O         3.5588842647        9.0845636183       -0.0227497888
  O         4.6369180069        5.0063574620       12.8382292098
  O         2.2831025390        1.3615990640        8.8945912441
  O        15.9636335815        4.1989805039       13.5722302472
  O         7.1589181565        1.2775098479        0.0480519889
  O         9.3722812561       16.0453104644       -0.2193133313
  O         4.8471438796       12.2749531651        2.5930684312
  O        16.6695191199       18.3411907917        6.2478717125
  O         5.2121072715       18.6306172745        6.3955688210
  O        16.0720356585        3.8867993903        7.1908052938
  O        11.9260763907       20.7158461353       15.0100585734
  O         8.0146771976       18.7950007717        1.8038172313
  O        19.5995443838       15.2882485593       12.7037713098
  O        17.0121104365        1.3980853821        7.3835441829
  O        18.5934982318        2.1561852758       11.3328194028
  O         1.7991351949        4.3255091774        2.1097028355
  O         2.0926601222       12.1511828117        2.0479634714
  O         1.8691749903        9.8962448185       10.6800750739
  O         1.9977686407        6.5246300086        3.5829797100
  O        11.4270107767        1.2209096268       17.6782909794
  O         5.2278909061        1.1029839736       13.7255339718
  O         7.9805014504        3.7402340903        1.1648362629
  O        11.5683357155       13.4998569911       14.2607325907
  O         7.2839429905       -0.3713260498       11.2618710849
  O        19.2031507440        2.2392346474        8.6789705519
  O         4.1827374726        7.1656374033       17.5124123373
  O         6.5415118998        1.9882306497        2.5455823645
  O        11.0999829935       18.0624775138       14.5724136338
  O         4.4080537153        2.1474014397       17.7312245442
  O        12.1055013167       19.4645710633       12.6310131046
  O         8.9877730111       16.3930771574       14.5165072345
  O         3.0130110008        1.9677436351        2.7840570793
  O         3.9446921770       16.9134116705        0.0053534752
  O        18.6813775912       18.6446990291        3.0925821554
  O         7.1653228371       13.2431115010        1.4084258704
  O        17.8793823049        3.9399200501        1.7570184296
  O        15.0765085103        1.8919731260        0.6930128590
  O         1.4361681670       19.4891333829        3.8314771979
  O        20.1364740597        6.6397551924        1.1629129190
  O         8.3850663331        1.8113211826        4.7760747505
  O         9.6338955549        3.5152822087       13.6085217026
  O        21.5099284257       13.8803596395       11.1928086589
  O        12.9905116675        2.8870774439        2.9424616106
  O        14.6141632837       18.5601736892        2.6156213800
  O         2.4791376376       12.3157962720       18.7130293845
  O        16.8284235288       17.0067417841        2.4833256570
  O        17.5608301620       19.6829440060        9.7429858983
  O        14.7921014912       15.0049631939       17.8648093086
  O         8.3218672418        2.1018206500       11.9089250060
  O        15.5085765557        7.3924952181       16.0758859144
  O        16.8255273557       10.8577527358       16.1629287526
  O        16.1982449812       20.4423206449       17.7981813464
  O         1.5023416191        3.3840835006        7.1129771333
  O        17.1671291461       19.8685731324       12.7350560617
  O        15.8172774656        2.1431261755       15.2928345803
  O        10.9067146325        1.0106367385        5.8403304527
  O        12.1853418155        3.6100676244       16.2166149177
  O        16.3912267442       17.7942139742       11.1267886378
  O        17.8048293904        1.6171083313        0.3924697570
  O         1.2526621306       10.0156928763        4.5729175754
  O        19.7146884697       13.2204369689        0.6455277992
  O         3.1179945796       11.9244539496        4.4445680947
  O         9.0984047003        7.7554347896        1.1125360459
  O        19.4018872236        5.8627557415       10.7917905027
  O        12.8035212706       20.1535222488       10.2383744948
  O        19.1833106985       20.0614449167       16.9414191928
 Na        20.0500362440       14.0617767073        2.8375156196
 Na        11.7956505958        4.6238512675        4.0422551407
 Na        15.0328949848        8.1462373554       18.2490923518
 Na         6.3918490446       17.0444880500       10.4142450341
 Na         4.3900721505        8.3487323573        6.1926262457
 Na        17.3137914650       14.2030587560       13.3792918889
 Na         1.6472933733        1.2070745277       11.1682980133
 Na        18.0398988012       13.4836014429        7.7471447522
 Na        17.6298294787       10.3502767951        8.6015803960
 Na         8.1368845140       17.0262212211        4.5033533801
 Na        10.6781170951        5.0438003631       15.0207547874
 Na         1.4798023099        9.9349499719        8.4601274471
 Na         6.4024226475        6.1027637567       -0.0589823712
 Na        10.2123005397       17.9978882636        2.4028727898
 Na        13.5319838315       17.4804458222       16.1546376278
 Na        10.1741745549        0.9025938848        9.6511228721
 Na         8.3790839513        5.1446386034        3.2867082704
 Na        18.3640964416       14.0689214548       16.4319443919
 Na        13.8757071646        3.4841792197       14.0937539547
 Na         5.7207770448       10.2837677741        3.7253584804
 Na        16.3908621319       11.4460960339        1.4419150878
 Na         0.7344174788       13.0020493345        9.7706667094
 Na         7.1163875887       19.3315582131        7.9593721365
 Na        14.0600837694        3.9096355210        0.9425187677
 Na        19.5388688896       16.0633953700       10.4111898430
 Na         4.0906002239       17.1908581325        7.4563257164
 Na        15.9035629230        7.0615232532        4.5025054479
 Na         5.0359523019        6.7777339894       14.7314731114
 Na        12.0192540057        5.9387598304       18.2251916425
 Na        20.3259499810       19.9440048764       -0.3981457129
 Na        13.1662083813       19.1667266128       19.2502061972
 Na        11.1966784190       17.1715484302        5.5442639895
 Na         2.9683047715        5.8506960976        8.0596069603
 Na         8.7413089142        9.9271066634        7.3329452817
 Na        11.1758189869       12.9479326239        5.3733924364
 Na         2.2811946707       12.7847151196        6.6682317650
 Na         3.8436177676       13.9346067471       15.3528729039
 Na         7.5335398979       12.3778933789       10.8389054374
 Na        16.7958187628        5.4393624966        0.0745224242
 Na        20.3410385312       18.8932936546        7.6635528365
 Na        20.6132005626        5.3155021548       15.9269681112
 Na         4.6105249332       15.3940580435        1.9761356915
 Na        11.3681937653       15.4795123416       -1.0813159374
 Na         2.9780103850       15.3574213400        9.4916862382
 Na         2.0013740843        1.9156951031       14.5846784874
 Na        15.1020839010        1.7445436189        3.0127578530
 Na        18.6359498047        4.9210298378       12.9241298452
 Na        13.5793634114       12.6708554947       18.6270181673
 Na         5.2788347089        4.9570157044        2.6257300023
 Na        14.6276131887        3.7276060947        5.0632655670
 Na        15.9288789997       14.8130949893        2.1738765792
 Na        16.3907538732        6.6699211263       13.8535176190
 Na        14.7715362024        5.1730304638       16.8383220768
 Na        19.8844633591        7.6638276270        5.6493761344
 Na         4.8023393651        3.8394548283       15.8228400335
 Na        20.1665408398       17.6555962109       13.0616116384
 Na         3.2165935448       11.4910161264       11.4828154796
 Na        17.6113864075        6.4943795990       16.3422897945
 Na         7.0082977377        4.7887812624       13.1128074940
 Na        18.3035604882        2.5923031318       17.4994775214
 Na         4.0541119875        0.7667683119        7.9252208617
 Na         7.4489109105        3.2505114749       16.5381764481
 Na        11.4359708228        3.9185670375       11.9287970324
 Na         4.7373989252        5.4232521985       10.6016294159
 Na         6.6689821428       13.8818668446       17.8942913339
 Na         8.6938646514       18.0534133831       12.7098159414
 Na         5.2036653745       10.7673666820       15.8692720672
 Na         9.9559252956       12.5166967470       17.6548945899
 Na        14.0187408872        6.9783928200        1.3458089062
 Na         8.9438946027        9.9698504696       15.3416966189
 Na         4.4162102320        7.5369547969        2.5461775656
 Na         2.0135476370        9.4031528135        2.1660961814
 Na        18.0956966092       15.0994257411        5.0451202555
 Na         8.5029356479       11.4509417555        2.1431564548
 Na        15.0810669954       12.1125922393       15.2052033694
 Na        15.4609518351        3.2947869713       11.3889585433
 Na         1.7796122616       16.4587905789        4.4560833371
 Na        18.1038814140        3.3716039808        5.9283444147
 Si        16.0488228046       18.6978385990       12.4151079110
 Si         8.5773763672       16.8874179135       18.0141775032
 Si        18.4992807693        1.5052566401       12.8610766609
 Si        10.3000178461        6.7461844054        1.4667633058
 Si        10.5673188401        1.7437712329       -0.3456454639
 Si         2.8993594325        5.8523464533        4.8549645304
 Si        19.8634348104        6.7191199970       -0.4723363229
 Si         7.5444093180        8.1086435875        1.7071791269
 Si         2.6383612794       18.1985671001       15.6836469817
 Si         3.4801530528        6.1137924150       -0.8043812696
 Si        19.0459541089       18.6189332296       16.3304375491
 Si        16.8567715201       19.9198274875        5.8945421983
 Si        16.8602161671       11.2811312172       17.7914845082
 Si        18.4802574350        2.4411124067        1.6839414211
 Si        20.1785803856       15.7095309311        7.0248417989
 Si        19.2210022065       16.5563960108       -0.5181294148
 Si         8.9927667885        4.4150461667       -0.0759097245
 Si        19.4136972263        8.1270662925       14.1436476284
 Si         4.1343827258       18.5668530635        0.3663332677
 Si        15.1572703182       14.9762323943       16.1862924080
 Si        15.6983095887       17.7700816526        1.5617081770
 Si        17.5980778587       10.9025692953       14.6919927463
 Si         4.0730470920       16.5244735067       13.4481031000
 Si        20.3376130074        5.7497683007        2.5412685668
 Si        16.0905491575        2.5602616250        8.0913784504
 Si         6.8371914594        2.5424240251        1.0709515752
 Si         1.4942641495        5.2913938272       10.7310091240
 Si        12.5491184607        1.1301436678        6.0201479220
 Si        18.1045735538        1.8637622789        9.7983570378
 Si        19.4669050884        9.8752625059       18.3629897174
 Si         9.8002379934        0.9673310494        4.5600974685
 Si        13.9982069271       15.9416135235       -0.4011680114
 Si         1.8475088819        9.7568830710       15.8782933871
 Si         7.2637485515        1.1712882731       10.8578931834
 Si        16.4314307560       18.4981624362        9.6484248401
 Si        19.9260320100        9.8020843636       11.5995757272
 Si        13.7775155030       20.1109367012        8.8943759557
 Si         2.8020052755       10.3486421790        4.8825922194
 Si         4.2116703014        3.3286373258       -0.4832387646
 Si        16.1612899287       17.8483763110       15.1992573825
 Si         5.7578674886       12.5298649333        1.2115195025
 Si        15.2905436794       20.5518837004       16.4839920512
 Si         4.6421244523        1.4949594264       12.2572161294
 Si         2.9045630337       16.2740673807       18.2762669534
 Si         2.8234816976        0.8566714937        4.0047834763
 Si        12.2588100756        2.0117020759       16.5355375154
 Si        10.1317005610       16.9699901138       15.4859485312
 Si        17.2454659696       17.0258904381        7.0989536355
 Si        18.2680130411       13.6165677423       -0.0155033802
 Si         8.8451051398        2.1002156771       13.4391828977
 Si        17.4395832477        5.0269961141        2.9971251498
 Si         6.5484904152       19.9940861319       14.6466486946
 Si        11.2390505712       19.6022670633       14.0601917409
 Si         6.9454137516        2.3189529284        4.2119082648
 Si         3.4995797096       18.1717730256       10.8835371973
 Si         8.1747454757       19.3646405713        0.3016368219
 Si        13.2367909911       20.3395350795       11.9270773452
 Si         5.4238817577       19.1205786325        4.9397836488
 Si         0.8498692993       11.8862944414       13.8716396295
 Si         1.6332032932       14.5065317606       12.5947674455
 Si         3.2533678123       12.7578039224        3.0967395609
 Si        13.1307400511       18.5990246672        3.4759977092
 Si        16.8023936888        3.3967654462       14.7327298389
 Si         4.6420755931       20.0584858705       17.1561106808
 Si         1.4506770632        2.6924286382        8.6314084298
 Si         4.0664466597        8.8196373282       17.9242049503
 Si         6.5232732670       18.0774811223        2.3104870027
 Si         2.1533529704        2.8482053002        1.6868520112
 Si         1.4454762393       12.0575460962        0.5020670259
 Si        16.2827826175        1.0649014796        0.1286908695
 Si        18.5227620030       17.2140337003        2.4847152231
 Si        12.0677372217       14.2787251770       15.6496775489
 Si         3.2539174635        4.2208575089       13.1474338905
 Si         6.6978319427        9.8869768418       -0.5204135365
 Si         1.7538591871        2.9633871679        5.4964102795
 Si        11.8724677506        1.8451723326        2.4934533772
 Si        19.1801514423       19.9957681329        3.9923677541
 Si         3.8279617913       13.1847044158       18.2427873797
 Se         4.8299687615        9.2345287277       13.3441796305
 Se         7.9896192512        7.1118963672        6.4350242999
 Se         5.0961809536        3.7586752574        7.9606122466
 Se         8.4831801774        6.4974035132       11.3288044154
 Se        10.1966916545        3.9901866617        8.8284258139
 Se        13.9739053032        5.1718829676        9.5860419501
 Se         4.8756243055       13.0684251384        9.3154448964
 Se         6.8910295542       11.2408114260        5.9945912702
 Se         5.2626030498        8.5092203491        9.2272989925
 Se         9.1542326350       10.1571351148       12.4128108813
 Se        11.1032860791       10.1235325929        4.9221398706
 Se        11.3256045546        8.2970218040        9.1990273673
 Se        12.6388456847        6.7053569246       13.2889391192
 Se        10.1153027348        7.7996478889       16.5532585334
 Se        13.4149426081        6.2686683666        5.7584277857
 Se        15.8957766350        8.0335165152       11.3152713968
 Se         9.9448005734       14.3140376592        3.4695776547
 Se         7.1589149540       15.9755123738        7.6011209846
 Se         9.1523860145       14.9350668434       11.3286409732
 Se        11.0437747553       11.2337414926        0.5559225173
 Se        10.1520458211       12.5832493893        8.0041415526
 Se        13.0096413511       11.7122301873       11.3961792198
 Se         7.9255550818       12.5369500612       15.5111454249
 Se        14.8265381779        9.5142571033        2.7096983506
 Se        14.3800202250       10.1985583756        7.4771205495
 Se        17.2585039888       12.9884164367       10.4558464963
 Se        12.4643519447       10.4993446016       16.1455360093
 Se        17.6065645228        7.5585997257        7.2396603016
 Se        10.8157498421       17.6222930654        8.4400155373
 Se        13.6100204607       15.8505971681       12.1623457794
 Se        14.0062155324       13.7260064401        4.0362097239
 Se        13.3629916245       14.6317899695        8.2848359020
 Se        17.1583549354       12.4351780585        4.2017909702
 Cd         6.1698976690        5.2835967609        6.1122262990
 Cd         9.2225712504        6.5738798568        8.7389360999
 Cd         3.3830031675        8.1509019872       11.3830503723
 Cd         7.8746807799        6.4405794402       16.3790061099
 Cd        12.3830328038        4.4620908587        7.4025889021
 Cd         7.6913842292        3.3511722153        8.3532698316
 Cd         5.0024829702       10.7727450913        7.8773052835
 Cd         6.4363077086       13.5133630862        7.0853330511
 Cd         6.7801579194        8.6083757408       11.6103127564
 Cd        10.0840264849        9.1332132573       18.8817315603
 Cd         9.3787534878        8.1526517599        4.1794297660
 Cd        12.5155365192        8.5438751151        6.4868878972
 Cd        10.4067061181        7.8730162552       12.4844119342
 Cd        13.6672227066        8.2859263281       15.3182816594
 Cd        15.6308265616        5.9810429526        7.8326452240
 Cd        13.4262950309        7.5325352412       10.6945339205
 Cd         9.4538235247       15.0822719729        8.4211281599
 Cd         8.8615435919       14.1288762252       13.8457256309
 Cd         6.7521298052       16.7020128144       15.5315304684
 Cd         8.3887264366       15.0772420949        1.5887249930
 Cd        12.8700184219       12.0651583061        8.2692067321
 Cd        10.7519610571       10.8322511427       10.3397768448
 Cd        11.7319084246       11.0922026676       13.7380867516
 Cd        12.3105928768       10.0628913923        2.5327737233
 Cd        15.0867828645       11.2066548816        5.0509778884
 Cd        15.1273348412       14.4383890853       10.3134557942
 Cd        16.4949015855       10.7176043621       11.4270390078
 Cd        18.0446436855        7.4460560472        9.8599917688
 Cd        12.2493822199       15.1306752930        2.5087613147
 Cd        12.3294755124       16.8328319811       10.2796361049
 Cd        14.7013092147       15.0443435133        6.0282242106
 Cd        11.7219112861       14.1138630036       12.0271591494
 Cd        18.8776224788       11.2976446124        5.5491111990
