417
 i =     8500, time =    17000.000, E =     -8967.1900161536
  O        14.1968330802        1.9936085523        8.7973538662
  O        15.8506315636        1.3539603889        5.0804906276
  O         9.8214779943       16.9849765172       16.9121370986
  O         6.0064796809       10.9944803721        0.6278403500
  O         2.5903363843        6.1926929619       10.4343592981
  O         1.6375253375        4.5482594945       12.4325268947
  O        16.5977974329        6.3460685701        2.4177893038
  O         5.0185908672       15.6818509137       14.3481186685
  O        15.4821809832       19.2433892985       15.6341959384
  O        12.9961256666        2.3937092861        6.1737961498
  O        11.6086478088        2.2113920752        0.7191155339
  O        13.1464751968       19.3080886937        4.7796396850
  O        11.6896745482        7.3160493242        1.0864874913
  O         5.3305337837       18.9844898816       -1.2129357928
  O         6.6656044371        3.6958731835        4.3574683101
  O         2.8772895138        2.0522331444        5.5554140683
  O        19.2151177774       16.1561163720        3.2301541498
  O        14.5667516652       19.3911763868       12.0097400853
  O        18.1082654305       21.1702882950        3.1795561709
  O         6.3165864261        5.3414104242       15.4842270997
  O         1.9274556288       17.8840091401       10.9447682804
  O        16.4971675969        2.7590201021        9.5601123461
  O        19.6038213927       11.7289965385        7.8680397399
  O         2.7341479274        2.9386671965        0.4515534396
  O         5.4996406096        9.5288032903       17.9629441748
  O        17.5563118663       13.4803749313        1.1822634506
  O         3.1584108454       10.3725710205        6.5246629751
  O        18.3553645216       20.0123694163        5.6669693837
  O         0.5047916930        8.4266402220       12.6425921583
  O        18.0186457228       12.7519016766       18.0712642827
  O        15.5898222037       16.7400056948       16.1383277008
  O         4.5219643348        6.2725137132        4.5530902052
  O        12.9753458605       19.4107052736        7.3879453547
  O         3.8505857838       19.6573537556       11.5442048977
  O         6.9290150031        8.6897651166        0.4710290881
  O         3.7890341278       19.2814523242        4.3568820651
  O         0.8156270309       11.0885059939       12.7105503329
  O         9.6162150134       18.7744654236        4.1901145518
  O        12.5665817817       19.7456091005        2.2807798453
  O        18.7871457359        6.6907538141       14.3625708772
  O        10.0488013114        6.2168207221        3.0488854189
  O         2.5372609379        7.0632337596        6.1438045240
  O         9.6592243669       19.8979875921       -0.0227047262
  O         2.9772463965       19.0915261605        0.0362556586
  O         0.6595377233       14.4943158494        6.2002078833
  O        19.6807264816        8.0102382483       -0.5697271047
  O         3.2406148613        9.1213823198       16.7663816633
  O         2.7162993530        4.5443048922        5.1369452887
  O         2.5051198587       15.6247102025       13.6005034498
  O         3.3271948203       19.6243038982       16.3920989761
  O         2.2982429766       10.7910839950       14.9672811903
  O        17.6556988096        4.3131459020       15.9566178885
  O        18.7044429041        5.5322437406       -0.9682875001
  O         4.9209786680       13.2687133610       19.3507901060
  O         3.0187977900       16.9758087955       16.8138996478
  O         7.7270749044        4.9693190022       18.3513886100
  O        16.9824575213       17.2310266395        8.6949365242
  O         6.8046419092        6.7708293058        2.1848418357
  O        19.0443448806       17.5116945310        0.8741319346
  O         8.0064039739       18.2911651883       18.2727460863
  O        16.7669335154       11.3719110210       13.7975999226
  O        18.9432411915       16.9385691397        6.8678339064
  O        19.9194641395        2.9772769332        4.8630359957
  O        12.9481149682        2.3144577713       11.9804341327
  O         5.3259358923       18.5400793201        1.3242333757
  O         7.3188505623       15.9903351342       17.0251615017
  O         3.5069993711       17.9559621852       14.3375598695
  O         8.1382315461       10.6033139120       18.3940779132
  O        13.9093824918       14.5431365994       15.6789961842
  O         5.9184816296        1.9535900370       11.1068233606
  O        11.6367275256       16.1025901584       15.4693221741
  O         9.6128713981        3.0671952872       -0.6765465791
  O        15.5999789107       11.5026721174       18.5592768882
  O        18.9287106897        5.6814593610        3.6695459492
  O         9.9325209147        5.2468897561        0.7921128819
  O        19.6924918118       20.0955782767       13.1465311614
  O        18.8172433519       15.1751714924       18.7144817059
  O         6.0104273021        1.3590453236        5.1070889229
  O        13.8636250954        1.3464890977       16.9731524553
  O        16.3055626073       18.9491160148        0.3494556247
  O         7.8421670100        9.2295050635        2.9618717134
  O         6.3564936563       18.5930647926        3.8312738810
  O        16.7165859832        4.7421607783        4.4412297787
  O        19.0698847381       11.8233394494       15.0485528080
  O        11.6053161675       13.8514321642       17.0417430891
  O         4.5859884309       12.5580404521       16.8131522767
  O        19.9099302314        2.2633102973        1.2390273119
  O        13.0124127922       17.2320134628       -1.0284199022
  O         1.7161757541        3.7608704644        9.9426756257
  O        20.3205149997       10.4916990022        0.2340869005
  O         7.0445951505       18.7304455336       14.4130732299
  O         1.6974382808       13.2141600547       14.0481256068
  O         4.1283503456        4.5015692240       18.3228467030
  O         1.4733434529        8.1985124507       15.1358994238
  O         6.5217837862       16.4177567896        2.5816437809
  O        14.5264722463        5.8631489956       19.0375604587
  O         2.4340875894        3.6337334470       14.7276933271
  O        18.0505971397        2.6324500867       13.9489494951
  O        19.7865856326       15.2576320600        8.8554028999
  O         4.2664521364       18.0240396547        9.5564510036
  O         1.2251775550       18.2273375072       15.4461800904
  O        17.9815300658       10.1059789431       18.5853554693
  O        16.4581812927       14.2720574573       15.8463135290
  O         5.4515976676        3.1351596747        0.9497569259
  O        19.2991095696       17.2093109239       17.5202302672
  O        17.9900861309       18.0796404062       15.4880196330
  O         1.7015431512       16.3689638265       -0.2139384611
  O         9.8110333817        0.9896361764       13.7649662487
  O         4.2569781689       16.9949774030       12.0686209850
  O        18.3774236563        9.3138590708       14.7295941370
  O        20.0574715569       10.0163733016       16.9840463148
  O        15.0141056881       18.8819083179        9.1174450423
  O        18.6540708424       10.1012563702       10.8382592010
  O         7.4784989475        2.0511904408       14.4567634255
  O        15.9484035752       17.6038022026       13.7214230384
  O         3.8429004751        5.9479435831        1.0379147701
  O         3.4212046649        2.6459881702       12.2054135526
  O         7.7625777486        1.3175731092        9.2986939882
  O         3.1947836512       14.5431615895       17.9326811827
  O         5.9154268258       20.6183689026       16.1907245989
  O        14.9093070519       16.6531135266        0.8455175865
  O        16.6842606933       15.6258409705        6.6164964394
  O        10.5804829602        1.9453297281        3.4152542853
  O         2.1849250452       16.5246501769        7.1994419749
  O         3.8349491203        9.3783568429        4.0413443777
  O         2.9551690434       14.2747782369        2.9324116057
  O        13.0020009412       14.9013296406        0.4264671944
  O         1.8934222240        5.7890837704       18.5468913789
  O        12.5084763628       17.2051483382        3.2029349223
  O         3.4342380605        9.2457662781        0.2554629431
  O         4.2255849917        4.9782162250       13.1764140166
  O         2.0406776830        1.2788886563        8.8928007951
  O        16.1103340831        4.3400023857       13.6549738725
  O         7.0801408386        1.2395308375        0.0949944929
  O         8.9011528095       16.1058196985       -0.0927962710
  O         4.9618423206       12.4731098960        2.5197424727
  O        16.5123249223       18.2263456789        6.3022251796
  O         5.5082941410       18.5080032280        6.4260541255
  O        15.6098652020        3.6184892119        7.0910288353
  O        12.1947326652       20.7147968334       14.9119433322
  O         7.9240771462       18.6178083840        1.6332517855
  O        19.3347355978       15.2551345578       13.0945455493
  O        16.4577875658        1.1109945528        7.5388092956
  O        18.5209310772        2.1830915033       11.3488229774
  O         1.5878010747        4.2345629964        2.5279289271
  O         2.3711195396       11.7748135767        1.9709362632
  O         1.8884931619        9.7983519308       10.7896574037
  O         1.9846550858        6.6192765821        3.5398989737
  O        11.4138389627        1.4878958567       17.5810474201
  O         5.2217224719        1.3631835904       13.7164815481
  O         7.9819624570        3.7408408153        1.2771700647
  O        11.6692275191       13.7046625154       14.3289125529
  O         7.5895741567       -0.5511984285       11.1402173548
  O        19.0564967229        2.5362923090        8.7139782959
  O         4.1282638523        7.2073709688       18.0984871743
  O         7.1154133180        1.7428744037        2.6290664781
  O        11.0159126350       18.4304186568       14.9752594595
  O         4.3379206327        2.0514931989       18.0054852411
  O        12.0765988097       19.3221586517       12.6998365584
  O         9.0896595308       16.5223587666       14.4425415162
  O         2.8653757708        2.0111080742        2.9005642742
  O         4.2411775926       16.6146433211       -0.1158014195
  O        18.3722492608       18.7314443370        3.1656887060
  O         7.2519141246       13.2645924437        1.1468527364
  O        17.7633726782        3.9955697503        1.8870898674
  O        15.0012793180        1.9461185562        0.6442560746
  O         1.1580083274       19.8575952584        4.1499139653
  O        19.8647043002        6.3869605064        1.3364472001
  O         8.5521585940        1.8723852000        4.9233471434
  O         9.4215280796        3.7673525161       13.6247437820
  O        21.3152982142       13.9807674389       11.5310306656
  O        12.9838097297        3.1065418590        2.7838971092
  O        14.7790619318       18.6260578988        2.6243062415
  O         2.6414359259       12.0725000166       18.5274205094
  O        16.8976417957       16.9918919850        2.2423447460
  O        17.6269547671       19.7416080490        9.6248779430
  O        14.8488625911       15.1418232074       18.0000687763
  O         8.4687219661        1.9874342927       11.7968505619
  O        15.3396935242        7.1933089085       15.9930890332
  O        17.0024628215       10.9554241775       16.3194665036
  O        16.3965844386       20.6707984854       17.7257566417
  O         1.6041642526        3.6030581809        7.3585640242
  O        16.9033669730       19.9941962687       13.0284230850
  O        15.6826097992        2.5013954522       15.4709204143
  O        10.8183237314        0.9146544876        5.9249818731
  O        12.6820815834        3.6107796019       16.1428018272
  O        16.5425064380       17.9495044748       11.1684462693
  O        17.6679684084        1.7657830033        0.4806130866
  O         1.3681643906        9.9806868655        4.5673202155
  O        20.0443553774       13.2690947585        0.4480998454
  O         3.2052470512       12.0100618135        4.4247247152
  O         9.1889023803        7.8576692780        1.1328533729
  O        19.2870214344        5.6338641976       10.7404814542
  O        12.7286641798       19.6486512559       10.1000742855
  O        19.2671595727       19.9323987693       17.0363002369
 Na        19.9722757792       14.1769148465        2.6378607030
 Na        11.5818406230        4.6337844819        3.9405538530
 Na        14.8150339426        7.9938429809       18.2801597861
 Na         6.4109099003       16.9411026573       10.2822384483
 Na         4.3683025324        8.3251680846        6.1710693467
 Na        17.3044448653       14.3586395981       13.4552729512
 Na         1.7256781261        1.2148998618       11.2429291401
 Na        18.1507750820       13.5727953557        7.7964198956
 Na        17.6485894388       10.2078669896        8.6158001567
 Na         8.1127034957       16.9000201084        4.5811592035
 Na        11.1533259608        5.0469886504       14.9490234864
 Na         1.5082828472        9.9635869707        8.4743735382
 Na         6.2841446027        6.5352108032       -0.1252272709
 Na        10.2187899868       18.0530520827        2.1895809884
 Na        13.2858403497       17.6305616923       16.1174286101
 Na        10.3083082919        0.8906394227        9.6673010234
 Na         8.0019926162        5.1738035390        3.1691631243
 Na        18.8084351451       14.0269594321       16.3989745924
 Na        13.7644376275        3.3109548492       13.8586227854
 Na         5.7224951077       10.3101948490        3.3809173856
 Na        16.5925021719       11.3213295552        1.7884534132
 Na         0.7360247804       13.0500551688        9.8397077910
 Na         7.5133714212       18.9435152297        7.5833104475
 Na        13.8850402483        3.8888897127        0.7034140555
 Na        18.3669032770       15.8290570543       10.5002265741
 Na         4.5258704441       16.6312060628        7.3631488216
 Na        15.8844734765        7.0827613193        4.5027929655
 Na         4.4993867383        6.7658178304       14.5944682234
 Na        12.2675022381        6.2819329556       18.7261111358
 Na        20.2920599874       19.5972858507       -0.0807330781
 Na        13.4007910432       19.3095042375       19.2734795791
 Na        11.3289620259       17.1774854342        5.5395460612
 Na         2.4288729395        5.8825937638        8.0923436754
 Na         8.7492457292        9.9289348252        7.0271528587
 Na        10.4896588135       12.8077938358        5.1934300858
 Na         2.2046843316       12.7883221340        6.8279178709
 Na         3.8419725582       13.9412854569       15.3729803918
 Na         7.5377329601       12.3928785207       10.8297805795
 Na        16.8106116051        5.8368652827        0.3626082239
 Na        20.6434849374       18.6774748013        8.0934166480
 Na        20.3115229432        5.0662608470       15.9451243108
 Na         4.3856550279       15.4128986957        1.7837716588
 Na        11.1578691571       15.5034170018       -0.9561041474
 Na         2.6398713389       15.7591208527        9.7641366113
 Na         0.9389309448        1.5408118335       15.0897277969
 Na        15.2348738660        1.8143888235        2.9972627319
 Na        18.6622592853        4.8631644715       12.8633519205
 Na        13.6806417452       12.8065731475       18.6186635845
 Na         5.1091265899        4.7847715083        2.6862424185
 Na        14.6931121113        3.6462869000        5.0245355714
 Na        15.8629076437       14.8026863691        2.1401690681
 Na        15.9551160792        6.6584361851       13.8637191785
 Na        14.6350147605        5.0985034076       16.8264105868
 Na        19.8704282781        7.9467976747        5.4855836363
 Na         4.4705023895        3.8367990331       15.8345094845
 Na        20.2527773556       17.7628994424       12.9104336490
 Na         3.1639991639       11.6381267383       11.4928937120
 Na        17.6121690922        6.4300074695       16.4633992135
 Na         7.0775170661        4.7906805593       13.4747168269
 Na        18.5495470218        2.8792721149       17.4459789706
 Na         4.0606905548        0.7952333172        7.9480754381
 Na         7.1375525229        3.4361098059       16.4736846858
 Na        10.7863505117        4.2518736422       11.6131074887
 Na         4.3626886908        4.7757263634       10.6104248973
 Na         6.8691023656       14.0984766245       17.9446847829
 Na         8.7960221917       18.1005754771       12.7906957183
 Na         4.7740934853       10.7486449223       15.5872961334
 Na         9.9482264269       12.5118800519       17.6406922966
 Na        13.8763701981        7.0015474900        1.7483562398
 Na         8.9334093322        9.9492122735       15.3538686005
 Na         4.4201529124        7.5448048113        2.5038533614
 Na         2.1414548897        9.3619016752        2.1355648628
 Na        18.2531222845       15.0078172882        5.0110358445
 Na         8.7486020698       11.4413206775        2.7680140347
 Na        15.0898594468       12.1047287764       15.2016054331
 Na        15.4782181853        3.3142036856       11.3823522131
 Na         1.7401106974       16.4435356411        4.8803402454
 Na        17.8768666467        3.3467734011        5.8259045037
 Si        15.9626797715       18.7540521688       12.5194475891
 Si         8.4477134837       16.7261353461       17.8677706345
 Si        18.3275640409        1.4128173940       12.8282356762
 Si        10.3053909468        6.6959686853        1.5280800917
 Si        10.5603199238        1.8017594190       -0.4046960291
 Si         2.9801518690        6.1300196418        4.9454755530
 Si        19.8670247764        6.3804752289       -0.3143614147
 Si         7.6718894641        8.1076771848        1.8550991896
 Si         2.7980850245       18.1607899869       15.7504929418
 Si         3.5193513939        5.8852944018       -0.4604021372
 Si        19.2588684018       18.4737479255       16.4362639658
 Si        16.7231649953       19.8729488108        6.0212817762
 Si        17.0180005471       11.2956080825       17.8892342551
 Si        18.3754264074        2.5217747336        1.7634903284
 Si        20.1362685329       15.6345884324        7.3155559764
 Si        19.4986541796       16.6050318666       -0.4356006959
 Si         8.7984569712        4.3990454153       -0.0228735015
 Si        19.4588107052        8.0790399951       14.1932777325
 Si         4.3324200229       18.3747589519        0.0138275135
 Si        15.2989811024       15.1082735834       16.3668196588
 Si        15.7776696328       17.8860346244        1.5030455736
 Si        17.7563184545       10.7644121354       14.8849824050
 Si         3.8733841863       16.4969150369       13.5292256792
 Si        20.2755874396        5.7218283333        2.7682960600
 Si        15.6634425825        2.4497896791        8.1674968599
 Si         6.9175398802        2.4342809713        1.1941527255
 Si         1.4121089924        5.1112937723       10.8867805379
 Si        12.5065027335        0.9231458875        6.0037383669
 Si        17.9331618525        2.0234445500        9.7779631354
 Si        19.5161304010        9.6065013089       18.5125985219
 Si         9.8798951196        0.9149825447        4.5935928490
 Si        13.8992258020       16.0612049039       -0.3318495398
 Si         1.8646546831        9.5976866817       16.0159966330
 Si         7.4117587376        1.0394893316       10.8429378087
 Si        16.5702328631       18.5307929641        9.5652474333
 Si        19.9747485189        9.8040718327       11.7010543831
 Si        13.7646849206       19.8273179494        8.7905355470
 Si         2.9104004067       10.4084584560        4.8830618724
 Si         4.1734551202        3.1481847976       -0.1706161703
 Si        16.3611105084       17.8813462930       15.3064451342
 Si         5.8334725394       12.4716474678        1.0668360215
 Si        15.3867671770       20.6392098670       16.4297340780
 Si         4.6765570021        1.5083643549       12.1521797624
 Si         3.0498052363       16.1129613073       18.2868080686
 Si         2.6810904607        1.0893893728        4.2496356326
 Si        12.4230418612        2.0667785537       16.4237121695
 Si        10.2269387991       17.0201560354       15.3648694299
 Si        17.3097992426       16.9938188511        7.0419952351
 Si        18.4895721832       13.6620684197       -0.0314655701
 Si         8.7585286398        2.3028226018       13.4051878250
 Si        17.4230950505        5.2131451606        3.1377613463
 Si         6.4319609358       20.1636147031       14.6413415796
 Si        11.2908883592       19.7618662496       14.0680331498
 Si         7.1054961268        2.2030230081        4.2701903042
 Si         3.5024012431       18.0987694410       10.9435958930
 Si         8.0823228844       19.3182913290        0.1421172438
 Si        13.0948682252       20.1694417558       11.6950036796
 Si         5.3215253866       19.2065494715        5.0123801468
 Si         1.0989970015       11.7192927073       14.2209237550
 Si         1.3604169145       14.5343577716       12.9210603251
 Si         3.3690016296       12.7416362091        2.9749051244
 Si        13.2331728541       18.6089622032        3.2699810025
 Si        16.8637895040        3.5026072753       14.7927001853
 Si         4.6977075065       20.0982254080       17.2345314310
 Si         1.3455791783        2.7015973099        8.7217005605
 Si         3.9987738807        8.8988051364       18.2340190925
 Si         6.5171166412       18.0282885505        2.3037315983
 Si         1.9633891638        2.8789184546        1.8901746151
 Si         1.6733898710       11.9411761532        0.4392653148
 Si        16.2706740673        1.1521180669       -0.0103273280
 Si        18.4997140922       17.2993085813        2.4918415296
 Si        12.1291891900       14.5044732820       15.7110225687
 Si         2.9218119527        3.9833420496       13.2821124893
 Si         6.7364388670       10.0274097433       -0.4096246698
 Si         1.7989409215        3.3607990572        5.7292119518
 Si        11.9581145540        1.9549895179        2.3762947628
 Si        18.9161999491       20.0466441018        4.0961229696
 Si         3.8728678767       13.0458450201       18.1311935547
 Se         5.1062233566        9.4735181784       12.9820601510
 Se         7.6529967048        6.9331478398        6.4360373008
 Se         5.2740164893        3.7583045472        8.0219795034
 Se         8.2798291898        6.4248236700       11.0573117496
 Se        10.3386312186        4.0685761471        8.7964561316
 Se        13.8745547708        5.0827295842        9.6807689517
 Se         4.4790307354       13.0550111991        8.9025678710
 Se         6.6292513447       11.1092059382        5.9177850607
 Se         5.3907883467        8.2323234797        8.9728977227
 Se         9.3366372448       10.2183917066       12.3415310829
 Se        11.0281152624        9.9415277724        4.9522110281
 Se        11.2453721786        8.3032626949        8.9561120072
 Se        12.4849205337        6.7965514910       13.1931438522
 Se        10.0309604045        7.6254455406       16.5862524167
 Se        13.3257953393        6.2686447728        5.7493943257
 Se        15.7986145011        8.3465624382       11.3662180086
 Se        10.0064091800       15.2347905094        3.6362309551
 Se         7.3520033887       15.7197578452        7.2707336813
 Se         9.1229286024       14.6971089995       11.4218068271
 Se        11.1142749594       11.4235862973        0.5814894263
 Se        10.1179899684       12.4776894124        8.0529475136
 Se        13.1049817050       11.6429376412       11.3512332560
 Se         8.0309697781       12.5885899328       15.4829136170
 Se        14.7625440207        9.2238709646        2.9550117239
 Se        14.5219989768       10.4001030389        7.4192505482
 Se        17.0532889074       13.3002661443       10.5056986047
 Se        12.5938179468       10.4798401577       16.0827484641
 Se        17.4525675121        7.5348162005        7.4886536332
 Se        10.2962537234       17.5196946821        8.4099135412
 Se        13.1906788226       16.1855048596       12.1574467697
 Se        13.6281246700       13.3756941950        4.2145005297
 Se        13.4493406516       14.8241973719        8.3747537488
 Se        17.5287634623       12.2253867909        4.6565378357
 Cd         5.7572035520        4.9419897516        5.9041716333
 Cd         9.1421546239        6.5839690756        8.5682971322
 Cd         3.6767737644        8.0643018808       11.0987903735
 Cd         7.9146290632        6.2715533800       16.4005449025
 Cd        12.4711629130        4.2383426790        7.4262688127
 Cd         7.7657457650        3.2982168393        8.4279952902
 Cd         4.9045623415       10.5703916270        7.9490483286
 Cd         6.4065345424       13.3857374136        7.0074627619
 Cd         6.9863144103        8.6849191726       11.2632580797
 Cd        10.1365678003        9.3431199568       18.7005653910
 Cd         9.2765159573        7.8716804786        4.4841035570
 Cd        12.8497033216        8.7673032148        6.5242834587
 Cd        10.2067158677        7.7518361042       12.2726213395
 Cd        13.6468284183        8.3265867195       15.3050506992
 Cd        15.3539076988        5.8811195237        7.7145009643
 Cd        13.3897649836        7.5926555914       10.4520571141
 Cd         9.3820464662       14.7951121412        8.7010612238
 Cd         9.2251778178       14.1240712438       13.9012522657
 Cd         6.7939898166       16.6267995257       15.0039181102
 Cd         8.1555567486       15.1407986194        1.7103732945
 Cd        12.8526303995       12.3440062061        8.1123946691
 Cd        10.9370903840       10.7358253282       10.1156928355
 Cd        11.5520341845       11.3885521476       13.8931867683
 Cd        12.3724772330       10.2856076446        2.6164823217
 Cd        15.2711279048       11.0815685310        4.8705887675
 Cd        14.8812539075       14.7093287050       10.6370730315
 Cd        16.6616693512       10.8773944597       11.7511559739
 Cd        17.8557116623        7.2952684053       10.1084584687
 Cd        12.2251153047       15.0461570893        2.3966929253
 Cd        11.9330870691       16.8020707950        9.9794633407
 Cd        14.8891370790       14.6489551592        6.1437144041
 Cd        11.8696386323       14.0494267666       12.0020121193
 Cd        19.4937775190       11.1598162276        5.9000575969
