417
 i =     8000, time =    16000.000, E =     -8967.2087506804
  O        14.4150925813        2.1814346806        8.6094489005
  O        15.7804324315        1.3305275979        5.4081053437
  O         9.5901627584       17.3122114480       16.9875107240
  O         6.3047735936       10.9505146563        0.7527111896
  O         2.8238694706        6.2259966208       10.2994430236
  O         1.8218028270        4.8562922145       12.4148401134
  O        16.3277733470        5.9218398157        2.5719682013
  O         4.8962045148       15.7424323978       14.4432466321
  O        15.3055816097       19.3465017687       16.0149207769
  O        12.8390771152        2.7350913000        6.1566263288
  O        11.5154609221        2.2515314218        0.8409405716
  O        13.3081762123       19.5107359752        4.9681261374
  O        11.8729450265        7.2166493167        1.4863231760
  O         5.0051404243       18.9117962828       -1.0163234726
  O         6.5976210774        3.8595561678        4.3976259824
  O         2.6195186306        1.9822503996        5.9115470222
  O        18.9740628816       15.7941035508        2.9462129655
  O        14.2741162583       19.5993323684       12.2432051430
  O        17.9279891484       20.8180889003        3.1934806800
  O         6.5836519994        5.1735084174       15.6574092829
  O         1.8224930263       17.8744088451       10.9797362504
  O        16.5006229217        3.0303857565        9.8785443810
  O        19.6538090817       11.4854427479        7.7918215221
  O         2.9346634040        2.7966827841        0.6387418141
  O         5.4845317009        9.5363797913       17.9355186959
  O        16.9663445464       13.4551003045        1.1725120442
  O         3.2010378886       10.4123561458        6.6701208461
  O        18.4286192290       20.0736744097        5.7653755118
  O         0.3247483576        8.7061260215       12.7376524785
  O        17.7323627627       12.5551377398       18.1318428383
  O        15.5336873583       16.7461685921       16.1635068859
  O         4.4724584018        6.4171497236        4.7645914442
  O        12.7016975834       19.8590434626        7.7242888001
  O         3.5617407114       19.6982316627       11.6968859627
  O         6.8417252608        8.4601521733        0.5901393292
  O         3.7474971607       19.3842724680        4.2683063024
  O         0.4603968581       11.3343064103       12.7654943512
  O         9.5881923871       18.9391911517        4.3622232824
  O        12.3855646844       19.8013953529        2.5193248795
  O        18.6363436719        6.8490925907       14.2713814848
  O        10.1235819668        6.2913914855        3.3656012476
  O         2.4550690429        7.1751611765        6.4058635062
  O         9.6237499553       19.9310987969        0.3112611860
  O         2.7187812299       19.2122290772        0.3513987937
  O         0.8833537646       15.1680955201        6.0989216938
  O        19.8790754979        8.2632065279       -0.5574285052
  O         3.2040936690        9.3242327628       16.8866128778
  O         2.5906020934        4.6157593504        5.6637525717
  O         2.3705591272       15.4578781289       13.5607744963
  O         3.1793605283       19.5939213623       16.4091106884
  O         1.9396480891       10.8767522259       15.0628622604
  O        17.1494188934        4.5281929316       16.2039580466
  O        18.4481203096        5.9521626001       -0.7596646606
  O         4.8531861324       13.2917368213       19.4129022436
  O         2.7918580713       17.0986587359       17.1657554892
  O         7.7734414557        4.9905532657       18.5075859087
  O        17.0195482725       17.3492036166        9.0822921807
  O         6.9391519970        6.9221953574        2.7179410404
  O        18.6517081484       17.5062544570        0.7906991060
  O         7.7968679967       18.4889547523       18.3093038617
  O        16.6045414310       11.4040437649       13.8265714602
  O        18.9711798968       17.3164266746        7.3824176591
  O        19.8241668880        3.0654966553        4.8768875498
  O        12.9629081059        2.6616779029       12.2371522324
  O         5.0996293870       18.5556836454        1.6431147417
  O         7.1189977315       16.0860880076       17.3221710350
  O         3.1988263436       17.6803479189       14.6233414407
  O         8.0956794375       10.2226267477       18.3064978894
  O        13.6976699036       14.8201420252       15.7071502266
  O         5.8429171125        1.7271318412       11.2214849467
  O        11.4246352215       16.0998120429       15.7366860614
  O         9.6356031299        3.2046169226       -0.8054190666
  O        15.5493574892       11.0240795583       18.8518655319
  O        18.8941313120        5.4211341699        3.5241292496
  O        10.0593713581        5.2924308648        0.8269116406
  O        19.4501499766       20.1610377699       13.4172914251
  O        18.3025513999       15.1200592815       18.7615377012
  O         5.8329237506        1.5434405847        5.1581820120
  O        13.5659214511        1.4517976578       17.4183639228
  O        16.0831154284       18.8360539891        0.5561719368
  O         7.8832784398        9.4391933849        2.9715652514
  O         6.3231163410       18.5898810985        4.0262641276
  O        16.7659203490        4.1644136483        4.4918505552
  O        18.8269175931       11.8282106785       15.1189334376
  O        11.8530249239       13.8510884260       17.1947224026
  O         4.4100945093       12.7398203729       16.9593529530
  O        20.0213331412        2.2203161715        1.6899161913
  O        12.9323109422       17.3754179648       -0.8027765586
  O         1.7350256826        4.0587738637        9.8055812873
  O        19.9717224113       10.6358203273        0.5568276204
  O         6.9817998927       18.6923907053       14.4885811986
  O         1.4538585154       13.2541209821       14.1553004382
  O         4.0482779733        4.6341830220       18.2876461850
  O         1.0895389566        8.3855331460       15.4166709451
  O         6.5020339079       16.4810128826        2.4378462820
  O        14.5239021764        5.8410774960       19.2520264874
  O         2.6459985805        3.9274995373       14.7459597619
  O        17.9366316833        2.7803964452       14.4071989306
  O        19.6666877897       15.1657510654        8.8120046045
  O         4.2417893690       17.9305048710        9.7805722599
  O         0.9835048720       18.1169529070       15.5594014004
  O        17.9006287860        9.9008768340       18.6383514254
  O        16.2207641496       14.1394046629       15.8943752004
  O         5.5115381469        3.3199374252        0.8428750199
  O        18.7922122113       17.3128267507       17.4990317830
  O        17.7454795537       18.1839158112       15.4009459040
  O         1.2691949305       16.2350598541       -0.2792983964
  O         9.9058025548        1.3560592832       14.3790558164
  O         4.1508489044       17.1587063806       12.2582395982
  O        18.0702715131        9.3301463284       14.6758692453
  O        20.1023231784       10.2808457285       17.1953830218
  O        14.8993501804       19.0122465262        9.1668829430
  O        18.6436214547       10.1082522935       10.6546361017
  O         7.4000862207        2.0097315971       14.5117923695
  O        15.6767457643       17.8597187859       13.8154020784
  O         3.8101882620        6.0070925578        1.0972052196
  O         3.5407244539        2.7304832726       12.4762417191
  O         7.8161413186        1.1711134409        9.5632793893
  O         3.0909740666       14.6772283977       18.1387300420
  O         5.7960890918       20.4146821794       16.2310141863
  O        14.7952061302       16.5906141869        0.9565963088
  O        16.6902501587       15.9819297867        6.6819442460
  O        10.5277331466        2.1015117846        3.4246140482
  O         2.1708200071       16.7710538270        7.8617198875
  O         3.8456974728        9.4924381516        4.1198999927
  O         2.9639560853       14.3698959585        3.0260302998
  O        12.8548964181       14.9326652569        0.4347713690
  O         1.8286385976        6.0708299747       18.5198554274
  O        12.5597442708       17.2535229297        3.6647477761
  O         3.4880945240        9.2190912987        0.3637086383
  O         4.4623771376        5.2199924365       13.1168772401
  O         2.2089088106        1.5316987228        9.0600410757
  O        15.7806786272        4.3784333675       13.8877900314
  O         7.2247339716        1.5148281774        0.0421040199
  O         8.8522871940       16.2624958784       -0.0148718656
  O         4.7385338033       12.4143371660        2.4747456870
  O        16.5408837545       18.6039412127        6.8555152515
  O         5.3430194256       18.7662642508        6.5215929196
  O        16.0447393789        4.2425628267        7.3643311497
  O        12.1912492560       20.1085363428       15.2568612313
  O         7.7808094301       18.6910532793        1.6320168256
  O        19.2226695659       15.0710582138       12.8525382568
  O        16.9891116766        1.7611603945        7.7080603142
  O        18.3457992732        2.5518486742       11.7796990971
  O         1.7079427731        4.4554334258        2.2682164618
  O         2.0495323789       12.0358961558        2.0708115656
  O         1.8794454395       10.0384444495       10.8628891964
  O         1.8465496904        6.5164296141        3.9096734553
  O        11.1132096459        1.2906871759       17.7314334020
  O         5.1578212794        1.0203989723       13.6827371102
  O         8.1333202176        3.6017170848        1.3679743997
  O        11.5019998966       13.8889660007       14.4779426835
  O         6.9863848803       -0.7871730346       11.1134146337
  O        19.1543917713        2.1970858936        9.3280293021
  O         4.3760474712        7.1759352272       18.1045728691
  O         6.9390551065        1.9065303432        2.7552904851
  O        10.4923998299       18.1563897541       14.5079595726
  O         4.3428976443        2.0937266422       18.0264915578
  O        11.6626271701       19.6339842868       12.6781958372
  O         8.8303305069       16.1972448584       14.5926086259
  O         2.9234365336        2.1975690887        3.1946070838
  O         3.7847870745       16.8140060250        0.2409922719
  O        18.6120520034       18.3505925365        3.5343530985
  O         7.1511740591       13.2026416621        1.4825358779
  O        17.6747296223        3.7081634085        1.9546399361
  O        15.2005677736        1.9160738162        1.1231670557
  O         1.1754529320       19.7936851697        4.1623983974
  O        20.0358491567        6.7447598467        1.4629321665
  O         8.5495356708        1.9448551408        4.9814221780
  O         9.2564111502        3.6439509778       13.3311967057
  O        21.4655373174       13.9882306303       11.4628319663
  O        13.0392611821        3.0768608520        2.8914570700
  O        14.6456587826       18.5321002878        2.7474591220
  O         2.3751485412       12.3314187659       18.7734877073
  O        16.7166441183       17.0633986120        2.4745336048
  O        17.3963074086       19.8530247393       10.0907058089
  O        14.7471928386       15.2320851909       18.0619550704
  O         8.4339568129        1.2981765735       12.1598359345
  O        15.3049010176        7.4012666994       15.9054970895
  O        16.7889163238       10.8836322875       16.4846759945
  O        16.0941985268       20.8222264913       18.0754367352
  O         1.0028041748        3.4796464381        7.4540120413
  O        16.7518029367       20.2041530908       13.0200537125
  O        15.3106457737        2.5781677732       15.8004344732
  O        10.8805991350        1.1632449545        5.9344378647
  O        12.0437622843        3.3728459088       16.1954696972
  O        16.1509226585       18.1196239045       11.3193192554
  O        17.8565334659        1.5559809559        0.5008899613
  O         1.2999854807       10.0075547135        4.6965164611
  O        19.5261167624       13.1839755290        0.6111790903
  O         3.0578893316       12.1096499197        4.5334308343
  O         9.2660506610        7.8436381820        1.3680660886
  O        19.3846425817        5.8381070340       10.9067929899
  O        12.7106890398       20.0929251251       10.2255086623
  O        19.1665851709       20.0636635987       16.9661007946
 Na        19.5980210068       13.7772513444        2.8371186534
 Na        11.3900617145        4.3280384646        4.3154590735
 Na        14.3954453950        8.9959094978       18.5169805589
 Na         6.0967014767       16.4750873861       10.7673957477
 Na         4.3726442115        8.3421158892        6.1989087583
 Na        17.2868011430       13.7488061481       13.5277180204
 Na         1.4681028254        1.0752030009       11.4067886676
 Na        17.8770594900       13.8806048969        7.8607402624
 Na        17.7830298065       10.5486031805        8.6031273642
 Na         8.1476061644       17.4217095163        5.1318708261
 Na        10.6418539312        4.8318830004       15.0105483280
 Na         1.6168993285        9.8462954071        8.3420210828
 Na         6.2554042580        6.0007544091        0.2658921381
 Na        10.3548534912       18.1512413285        2.1531655140
 Na        12.9061411537       17.6930774915       16.3460112946
 Na        10.0318462019        0.9474683894        8.8928577352
 Na         8.2133917395        5.1754573266        3.5588628697
 Na        18.4744497364       14.0118759153       16.4304013932
 Na        13.5335224713        3.4032747523       14.4010841985
 Na         5.8010348628       10.7031402342        3.9171838438
 Na        15.6581073656       11.7770124146        1.5303716083
 Na         0.7245887407       12.8457669215        9.7932935261
 Na         6.1848105027       18.6640617768        8.7861700421
 Na        14.4776538758        3.9430337694        0.8662719888
 Na        18.9095376527       16.0399927346       10.7018472319
 Na         4.1369234280       17.1769555158        7.5372354079
 Na        16.2192787109        7.2620875032        4.5356115912
 Na         4.9984337210        6.7959789336       14.2545636951
 Na        12.3115583586        6.1009496437       18.7804170295
 Na        20.1020871030       19.9349253091       -0.2875285413
 Na        13.2106070649       19.5814483828       19.2140569851
 Na        11.3800616200       17.2416379564        5.8042466219
 Na         2.7575229122        5.7907506616        8.1185740589
 Na         8.8945875881        9.7017747027        7.3050232870
 Na        11.3665831807       12.9215465692        5.3852707406
 Na         2.2305083864       13.1284267947        6.8198397950
 Na         3.7563070433       14.0067458262       15.1602705204
 Na         7.5393451706       12.3829694743       10.8283859870
 Na        16.4365973955        6.7021622157        0.5909507635
 Na        20.4503917269       19.0230180029        8.8485705865
 Na        20.4801950696        5.6030131974       15.9498123034
 Na         4.7650078634       15.2987551814        1.8081886373
 Na        10.9625231844       15.7441777992       -1.0770898986
 Na         2.5426862809       15.8120643106        9.8025450517
 Na         1.1236687324        1.6844077961       15.1524629373
 Na        15.4754056831        2.1624371335        3.3875327951
 Na        18.6705909046        5.0141242376       12.9114691354
 Na        13.5542037722       13.0003302874       18.6333808017
 Na         4.6974609353        4.5830058605        2.9577200087
 Na        14.9747126549        3.8167932514        5.5914971593
 Na        15.8104432532       15.0489669766        2.2846352497
 Na        16.1902045001        6.8386946624       13.8960584799
 Na        14.8785831469        5.4041018218       17.1130712681
 Na        19.8568483830        7.8825594177        5.2423048673
 Na         4.6547174297        4.0888764837       15.8182907366
 Na        19.8754240917       17.7349892627       13.3119408585
 Na         3.5313307238       11.9426369041       11.4926010165
 Na        17.4639654081        6.7232236004       16.4812148180
 Na         6.8828144067        4.6958173229       13.4021117507
 Na        17.5637596777        3.8987246401       18.5067587379
 Na         4.0097998388        1.2247791016        7.9435639929
 Na         7.5826873373        2.9355372431       16.5563982945
 Na        11.0354729469        3.9653820444       11.7780277457
 Na         4.7022921354        5.0650382770       10.6327070364
 Na         6.7472057603       13.6558491496       17.8174757361
 Na         8.5450933606       17.7547163678       12.8728003631
 Na         4.9874134484       10.8879367870       15.8846952280
 Na        10.1468625929       12.5232625184       17.5637724735
 Na        13.8658763135        6.3367427291        2.1582744139
 Na         8.4730010125        9.9389534800       15.9889053753
 Na         4.7009441452        7.7597423559        2.5017224637
 Na         1.8392740820        9.2663048036        2.2140285031
 Na        18.1620684235       15.7005738295        4.9913729285
 Na         8.7978709839       11.3761878994        2.2609479970
 Na        14.8609413476       12.2664493820       15.2232040843
 Na        14.9630924139        3.7860927352       11.7747785983
 Na         1.7782795622       16.2739998944        3.9477277348
 Na        17.8453315391        3.6267496134        6.2035538538
 Si        15.7696825782       18.9838212474       12.6418617638
 Si         8.2653908384       16.9101440435       18.0159102746
 Si        18.1393295932        1.6303828535       13.2635485543
 Si        10.3949564292        6.6190269283        1.8329209740
 Si        10.3882877792        1.8477260001       -0.2987693966
 Si         2.9238213689        6.2164916065        5.2104101822
 Si        19.7682527364        6.6748926750       -0.2024220678
 Si         7.6908566233        8.1246302592        2.0451020375
 Si         2.5726949333       18.1311795759       15.9725036753
 Si         3.4152245127        6.0388871056       -0.4719617901
 Si        18.9822891255       18.6290869223       16.4085867041
 Si        16.8221897324       20.1950526281        6.4198328410
 Si        16.8618329779       11.0894211011       18.0906756054
 Si        18.3933691556        2.2636098885        1.8756751657
 Si        20.1239083788       16.0087988976        7.5162850669
 Si        19.0427400640       16.5495074660       -0.4964345593
 Si         8.8811233260        4.4271859312        0.0961517197
 Si        19.2260217114        8.2572432150       14.2146273602
 Si         4.0860534801       18.4821731821        0.3195779550
 Si        15.1692664745       15.1187997287       16.5123804389
 Si        15.5191665179       17.7951561844        1.6456358074
 Si        17.4917455676       10.8481781253       15.0378438849
 Si         3.6597560448       16.4452461186       13.6373506161
 Si        20.2916708413        5.7678012607        2.7822580394
 Si        15.9354222013        2.9085918998        8.2938348126
 Si         6.8680812627        2.5599276166        1.2935824157
 Si         1.5582055530        5.4059474868       10.8197308155
 Si        12.5279082794        1.1611380651        6.1750689508
 Si        17.8937568779        2.0826040974       10.2396918616
 Si        19.5175240574        9.7789119277       18.6106859835
 Si         9.8801029690        1.0702502042        4.6448741303
 Si        13.8026099794       16.1490605879       -0.2446366227
 Si         1.8601092251        9.6502794117       16.1833088200
 Si         7.2752559948        0.7659499380       11.0329230089
 Si        16.3608163935       18.6053834159        9.8252391538
 Si        19.9077614114       10.0222515471       11.6907868020
 Si        13.7378181155       20.1519911809        8.9497255212
 Si         2.9088579448       10.4498712896        5.0397625051
 Si         4.2022701639        3.1789892976       -0.1898639409
 Si        16.0893309388       18.0439241892       15.4313588492
 Si         5.7423356054       12.4649804220        1.1402903985
 Si        15.1294466111       20.7174939804       16.8386271632
 Si         4.5547984259        1.4976063656       12.2471969260
 Si         2.7076146646       16.2370406628       18.4899548039
 Si         2.5636587534        1.2026919251        4.4520767488
 Si        12.1620259783        1.8354155441       16.5740915572
 Si         9.9910990487       16.8554675795       15.4367425336
 Si        17.3061504066       17.2600322272        7.4163323745
 Si        18.0746048064       13.5965049799        0.0616977479
 Si         8.7747390128        2.1440012541       13.5191183282
 Si        17.3578941182        4.7988956343        3.1860276958
 Si         6.3267199406       20.1204308296       14.6819628907
 Si        11.0434997982       19.6582553132       14.2024918826
 Si         7.0892021878        2.3530621410        4.4006067763
 Si         3.4268989661       18.1073322600       11.1093935560
 Si         7.9957865059       19.4358673926        0.2021923921
 Si        12.8886157372       20.4852120850       11.8687523864
 Si         5.2602859498       19.3760262436        5.0694331966
 Si         0.8008387127       11.7399741451       14.2822004995
 Si         1.2957672166       14.4294430487       12.8126224419
 Si         3.1950829488       12.8279172067        3.0715474064
 Si        13.1659007301       18.7437787810        3.5194787091
 Si        16.5296913017        3.6467562337       15.0801301469
 Si         4.5218595672       20.0339018045       17.2808448684
 Si         1.3245339967        2.7830810515        8.9232800442
 Si         4.0193831993        8.7982182225       18.3241529689
 Si         6.3978990496       18.0546831354        2.4579252307
 Si         2.0853639217        2.9616516297        2.0052659514
 Si         1.3918128647       12.0706467792        0.6153747107
 Si        16.2102743498        1.0367627566        0.3483461678
 Si        18.4290899175       17.1809480437        2.3840162829
 Si        12.1220945101       14.5276059136       15.8109950500
 Si         3.1279706746        4.2868575430       13.2486349036
 Si         6.7088343462        9.7905986493       -0.3377293532
 Si         1.5527878359        3.3120486627        5.9028897972
 Si        11.9276500659        2.0373719889        2.4513221794
 Si        18.8623148938       19.8467512316        4.2225428423
 Si         3.7107345017       13.1860264013       18.2491449406
 Se         4.6790347617        9.4811042695       13.1627970525
 Se         7.8272743013        7.2088930890        6.6357240710
 Se         5.2866475882        3.8547398836        8.0303514622
 Se         8.1930036313        6.4376318812       11.2633798891
 Se        10.0511364207        3.9681752258        8.9406392019
 Se        13.8580386014        5.4863223871        9.5508495305
 Se         4.5940303374       13.4073565515        9.1347843631
 Se         7.2887867030       11.7013715346        6.1021970447
 Se         5.2249863722        8.5746329535        9.2563917911
 Se         9.1137961326       10.2779513616       12.4896280068
 Se        10.9803091764        9.9832050360        4.8418569271
 Se        11.1104538059        8.5210516831        9.1288011268
 Se        12.3430493660        6.7594261468       13.5471693119
 Se        10.3144408091        7.4807689521       16.7528024801
 Se        13.5201142591        6.3827073452        5.7002086343
 Se        15.6488801149        8.2747265934       11.4017309168
 Se         9.8697656276       14.9333535957        3.7508643873
 Se         7.3619826484       16.2502134517        7.7321353035
 Se         9.2267540973       14.9601493831       11.4308253011
 Se        11.3869959426       11.1715988109        0.6613722490
 Se        10.2596596754       12.2704106014        8.1308976995
 Se        12.8415265393       11.6157734490       11.7693030632
 Se         7.8745742676       12.5092606148       15.5777755448
 Se        15.1120615816        9.3348382354        2.9340838617
 Se        14.4940809340       10.3851272026        7.6701792496
 Se        17.1358293221       13.2506212319       10.6127784151
 Se        12.5566886600       10.4782284059       16.3087110265
 Se        17.9087929004        7.5337113666        7.4273416867
 Se        10.5261333961       17.3780022122        8.6509437726
 Se        13.4989471629       15.8486890883       12.3733091137
 Se        13.8198367496       13.4938072612        3.8035123791
 Se        13.5278474151       14.8615405392        8.1340318533
 Se        17.2948026019       12.6272948983        4.5087054651
 Cd         5.9708016552        5.2003830819        6.0000083756
 Cd         9.3369034760        6.5404098329        8.7579652852
 Cd         3.2970336448        8.2947690777       11.1851362998
 Cd         8.0315758598        6.2426280494       16.7303573665
 Cd        12.3777358884        4.5360965505        7.5185041928
 Cd         7.6360203045        3.2668016713        8.7556915135
 Cd         5.1933540196       11.0101147318        7.8190275073
 Cd         6.4564786529       13.8162814315        7.2381982823
 Cd         6.6086040780        8.6024431026       11.5724156920
 Cd        10.0802794720        9.2939284069       18.8218922823
 Cd         9.0886308585        8.4056603300        4.6368780375
 Cd        12.5321812551        8.6731620128        6.7326734341
 Cd        10.0341872548        7.6907942198       12.7320262003
 Cd        13.6776419118        8.4054702620       15.2662056013
 Cd        15.3964752970        6.4580791608        7.6830366323
 Cd        13.0318594863        7.6044934503       10.8700495304
 Cd         9.5948331508       14.7820183695        8.6849045345
 Cd         9.1270402160       13.9796054304       13.9283574071
 Cd         6.4929568554       16.8844137767       15.4342676541
 Cd         8.1405052357       15.1486254380        1.9012273548
 Cd        13.1094873622       12.3989415027        8.3068135578
 Cd        10.6740869027       10.8058831239       10.4731763079
 Cd        11.5326232820       11.4878288139       14.1549831614
 Cd        12.2721795506        9.2877549648        2.4880923168
 Cd        15.2083392498       11.0754238821        5.0773643998
 Cd        14.9327737829       14.4822716465       10.5425878557
 Cd        16.6543501547       10.6646635797       11.5579415759
 Cd        17.9924906421        7.4301079930       10.1594982438
 Cd        12.1527237042       15.1764384053        2.5585552163
 Cd        12.2371744617       16.8655752197       10.4191729144
 Cd        14.8323202247       14.9442774229        5.8645436655
 Cd        11.5632880162       14.0015141869       11.9632828108
 Cd        19.2750190451       11.3167622149        5.7336848576
