417
 i =     5800, time =    11600.000, E =     -8967.2418675342
  O        14.3163547667        2.1544570885        8.8257458916
  O        15.5706274729        1.2381176431        5.2637801598
  O         9.5231023490       17.4466667431       17.0340398113
  O         6.1078295362       11.1870708297        0.8534871877
  O         2.4130644405        6.5074280675       10.6500714397
  O         1.5074407929        4.7778287824       12.5574790614
  O        16.1992746477        6.0123679165        2.4317597522
  O         4.8294041519       15.7477821010       14.2784103893
  O        15.2430408982       18.9694952667       16.1212325302
  O        12.4699319432        2.9571662861        6.3336059031
  O        11.5916343448        2.1743944753        1.1055644967
  O        12.8065937059       19.8552829798        5.0799241836
  O        11.7957178569        7.3281578315        1.5517791500
  O         4.9523814813       19.3083841669       -0.7760170401
  O         6.5425209007        4.0808165182        4.4945462493
  O         2.4198309034        2.0288748953        5.7314437636
  O        19.0458203341       15.7891182071        3.1837423934
  O        14.5908222557       19.5564380070       12.4217461087
  O        17.9934038413       20.7757069741        3.1369181265
  O         6.4349522728        5.2877753056       15.4523495470
  O         1.6815141545       18.0331927148       11.1021749991
  O        16.4947342552        3.1242303488        9.8790796131
  O        19.4494871088       11.8943568149        8.1413005665
  O         2.8993445587        2.9433544313        0.6580701426
  O         5.3140978699        9.9201867524       17.9196953311
  O        17.4003822180       13.5024355511        1.4042603425
  O         3.0593735783       10.5644167398        6.6700954995
  O        18.2696071003       20.3102707147        5.7081273130
  O         0.3693217763        8.6320723303       12.8773936864
  O        17.8909951254       12.9018849899       18.2300878882
  O        16.0659667883       16.4812252104       16.2159017773
  O         4.3350126671        6.4994228612        4.9073633971
  O        12.6097819028       19.8464990137        7.7411096907
  O         3.4891338261       19.8330158519       11.8308671297
  O         6.6407029696        8.8214637086        0.6634030862
  O         3.5812062540       19.4922483242        4.4832250036
  O         0.5634278405       11.2952923331       12.9316513180
  O         9.4103862131       18.8682250648        4.4995702615
  O        12.3683094711       19.6658869296        2.6093229978
  O        18.6232858227        6.9041931457       14.6889155659
  O        10.0783652934        6.2641981644        3.4639385988
  O         2.2964531057        7.0854874067        6.4619961998
  O         9.5959767493       20.1259423378        0.6250657769
  O         2.5796400941       19.3743698875        0.4503291500
  O         0.2963983062       14.7123208100        6.3862512438
  O        19.3876714582        8.3265728860       -0.5779934879
  O         3.0345782246        9.4863246644       16.9582321889
  O         2.7571564505        4.6196690754        5.6565817937
  O         2.2178756118       15.8597022124       13.5426012014
  O         3.3054564234       19.8263627515       16.5086246624
  O         1.8979743541       11.2084946819       15.3464404297
  O        16.7478453435        4.2526427735       16.4979999344
  O        18.5512264814        5.9448739736       -0.6478327713
  O         5.0041769571       13.5573830060       19.5492200288
  O         3.1259299802       17.0239811506       17.1041363861
  O         7.9395969089        4.9420828252       18.3769012389
  O        16.9324166708       17.4231962535        9.0611116824
  O         6.7890622588        6.9505757726        2.4537516537
  O        18.7322437070       17.6418966180        1.1663782211
  O         7.9218915974       18.7732918791       18.5115515354
  O        16.6567236120       11.6672874693       13.8849926176
  O        18.8088457501       17.1455677345        7.3123076681
  O        19.8805433458        3.5954198299        4.7333363421
  O        13.0078179005        2.2599239158       12.3360590427
  O         4.9766611030       18.9678581416        1.7599717208
  O         6.8498506263       16.4577823090       17.4656057502
  O         3.2618956704       17.9972853114       14.6443994358
  O         7.8735171757       10.5203326426       18.2389112352
  O        13.3863361974       15.7916682754       15.8357942300
  O         5.7667684669        1.9448943854       11.8431619505
  O        10.6877396219       15.5810305859       15.6693007930
  O         9.7979244102        3.2807194894       -0.5912527150
  O        15.4687959144       11.6413242498       18.8637209891
  O        18.6208687844        5.5782925564        3.3702749925
  O        10.0260568895        5.3728785671        0.9638056368
  O        19.7199156323       20.4296739382       13.6269365452
  O        18.3570547621       15.4111706937       18.8901772972
  O         5.6186924909        1.7294294836        5.3008256391
  O        13.6673986689        1.4500599792       17.2344127978
  O        16.0195782345       18.9027799549        0.9103645982
  O         7.7645988693        9.3867306511        2.9737241942
  O         6.1618662393       18.7526623422        4.2170814650
  O        16.4009353903        4.3189641954        4.4975667789
  O        18.7487166299       12.2502818293       15.1559399033
  O        11.9278467922       13.8466035719       17.1461385991
  O         4.4711170336       13.0927055701       17.0164790166
  O        19.8694939477        2.3255112783        1.4260943145
  O        12.5011650154       17.4278773041       -0.5792682003
  O         1.6523747452        4.1248679515       10.0124670977
  O        20.1264144660       10.6879354210        0.5758821643
  O         6.4907153175       18.7558118172       14.4463418216
  O         1.3610354576       13.5869431520       14.2430150039
  O         3.9854649762        4.9326315169       18.4059425932
  O         1.0497937864        8.6011182855       15.5114166499
  O         6.5582165344       16.7496384404        2.4473462816
  O        14.1738944945        5.6121170997       19.1268298550
  O         2.3645809973        4.0063832071       14.9975756444
  O        17.9428946857        2.8993472988       14.3210503078
  O        19.9526107712       15.2730425035        8.9837111034
  O         4.1810291346       18.1058613751        9.7445667900
  O         1.0051642261       18.2669757299       15.9802459960
  O        17.6094040908       10.1808843609       18.7147892615
  O        15.3210716274       13.9876398146       16.2968201913
  O         5.3959119277        3.4394335338        0.7512517441
  O        18.7273443103       17.8763322416       17.9122235048
  O        17.9014094648       18.4518565705       15.6481407126
  O         1.3354472740       16.6362815392       -0.1571607802
  O         9.6195376915        0.7249354688       13.9371621835
  O         4.0480428360       17.2750304499       12.1734970569
  O        18.0722469731        9.5292174672       14.9704478321
  O        19.9509829126       10.5399052864       17.3655639065
  O        14.8611686332       19.0763162378        9.2141254112
  O        18.5460016262       10.0437317429       10.9408311063
  O         7.2035671098        1.9872790852       14.2980937545
  O        15.9252001566       17.7870688991       13.9697066578
  O         3.8742437172        6.1437991068        1.3150746465
  O         3.2121037723        2.8605746473       12.5609635644
  O         7.3007810125        1.5868915288        9.5870822943
  O         3.0198130703       14.8503604680       18.2888152487
  O         5.7999693357       20.6851674225       16.3180951808
  O        14.3888980018       16.9089683264        1.3821631984
  O        16.3830127758       15.9752642127        6.7910175117
  O        10.3369750418        1.8442149160        3.4626875088
  O         2.0809829760       16.5928751207        7.1231012740
  O         3.6614104768        9.6055406843        4.0760239463
  O         2.9104974663       14.5933107984        3.0987307911
  O        12.8739529062       15.0686073039        0.7645970152
  O         1.8056102087        6.3055361596       18.7170794409
  O        12.6098174711       17.3527186997        4.0019532269
  O         3.3123137924        9.4864367718        0.4407547253
  O         4.2032668310        5.2358206592       13.3851765683
  O         1.9215069806        1.6114868900        9.1462872915
  O        15.7608125225        4.2606575199       13.8611812775
  O         7.1306598667        1.5922793003        0.1233079739
  O         8.8671231821       16.3097841298       -0.0536537474
  O         4.5334191667       12.5157441618        2.4787267286
  O        16.5561354244       18.5575677290        6.6948057734
  O         4.9614149311       18.9135754860        6.6538031510
  O        15.6469051320        4.0153458350        7.3226140778
  O        11.8581822645       20.0880514563       15.4163128566
  O         7.7395553101       18.9580361348        1.8401888796
  O        19.0794599987       15.1938969784       12.6945911657
  O        16.6582862108        1.6084865533        7.7366885028
  O        18.3136435979        2.4052230835       11.7818249180
  O         1.5820813036        4.5525813713        2.2537138229
  O         1.9878748406       12.2086332913        2.2294318033
  O         1.8849206392        9.9163163450       11.0988197321
  O         1.7346239288        6.5500652462        3.9623819523
  O        11.2056322663        1.3619893452       17.9178069019
  O         4.6314352289        1.3489183361       14.0325771872
  O         7.8939058612        3.8461025847        1.3907356019
  O        12.1649161836       13.6562863485       14.5706792826
  O         7.0394527578       -0.5238763635       11.2455738842
  O        18.9379257934        2.6013892399        9.1410953457
  O         4.2528857665        7.5113141745       18.3639926510
  O         6.5157126448        2.1136335810        2.7870983738
  O        10.7814405427       17.9018942165       14.7012480394
  O         4.3838203685        2.4728841548       17.8797291447
  O        12.0475959829       19.1692576745       12.9022906277
  O         8.4056876261       16.5274946886       14.6837942259
  O         2.6225744275        2.2796585601        3.1152346867
  O         3.9139558202       16.9966770928        0.2835975835
  O        18.4289766472       18.3747987992        3.7322825148
  O         6.9792526009       13.3712226347        1.9588238666
  O        17.4310038514        3.6974448606        2.0433021372
  O        14.7918630745        1.8486932994        0.8585542752
  O         1.0034514669       19.9120155732        4.0363092307
  O        19.9863857306        6.8984534150        1.6131425351
  O         8.2601375477        2.0789009504        4.9774023296
  O         9.3347420698        3.4129010117       13.6635881281
  O        21.2809040528       13.8432901170       11.6445227101
  O        12.7870935891        3.0128994205        3.3142363870
  O        14.8002279376       18.8008454360        3.3359584354
  O         2.7146570417       12.2456503356       18.9355243020
  O        16.6752528308       16.8968614862        2.6057628447
  O        17.4820910868       19.9120363499        9.9262945794
  O        14.5429501554       15.8088466971       18.2191356172
  O         8.3725083345        1.6722587244       11.9215190561
  O        15.1663891461        7.5478410127       16.3993077458
  O        16.7135612834       11.3369584695       16.4909331278
  O        16.2349119256       20.4981441225       18.0496986216
  O         1.0332468792        3.5496627358        7.3927495498
  O        17.0743181723       19.9465420341       13.2329989573
  O        15.6679121916        2.0842521227       15.4851055835
  O        10.5662369119        1.2347976125        6.1551801779
  O        12.0598560059        3.3827677410       16.0025428703
  O        16.3959483063       18.1484130928       11.3479394938
  O        17.5252715246        1.7312368437        0.5316372922
  O         1.1641798340       10.0655616213        4.8429442915
  O        19.8675606048       13.3548537170        0.6079884704
  O         2.7755206791       12.2576917630        4.6599090438
  O         9.1134905990        7.8346463907        1.3780794121
  O        19.0524269517        5.7406695014       10.9944769470
  O        12.7566253783       19.8070481034       10.4353633558
  O        19.3627588184       20.3926593689       17.0736365123
 Na        19.4640973628       13.6656635193        3.0403305418
 Na        11.5484946743        4.6082421049        4.1137476009
 Na        14.9139003571        9.1158557498       17.8555068935
 Na         5.9479692000       16.6160667135       10.8873689725
 Na         4.2751064752        8.3934087168        6.5262336830
 Na        17.2402342188       14.0072662129       13.3342628220
 Na         1.4078434510        1.6591917776       11.7384224897
 Na        17.9925398799       13.7919354684        7.6048552968
 Na        17.3090852575       10.9485726797        8.5018905959
 Na         7.7885804999       17.2353954894        5.1218269095
 Na        10.4984196241        4.6649613538       15.2336901163
 Na         1.5261496405       10.0241646082        8.6062704983
 Na         6.2223738994        5.8750995617        0.3318503719
 Na        10.2318016214       17.9465097612        2.6087642766
 Na        12.7674035787       17.9936212969       16.5663460004
 Na         9.5364983594        1.0117710898        8.7910878561
 Na         8.0070829340        5.3161765831        3.3725501610
 Na        17.6016070772       14.4780110419       16.5419520346
 Na        13.4060304555        3.5481205594       14.1843771207
 Na         5.6544001608       10.5155836840        3.3398810527
 Na        16.0879489784       11.2749280576        1.7815746239
 Na         0.2885054265       13.0084552276       10.2504803010
 Na         6.0535821233       18.8361999826        8.7603909130
 Na        13.5899117188        3.7706450825        0.7490419240
 Na        18.5016158712       16.1715550347       10.6077344012
 Na         3.9740293232       17.1596318249        7.6046145532
 Na        15.5145704654        6.9779778599        4.3662333187
 Na         4.7912602791        6.9984458480       14.6250381023
 Na        12.3888635413        6.7705975069       18.6349332919
 Na        19.8419788652       19.8542920320       -0.0026902321
 Na        12.9813236327       19.3994404438       19.5142297328
 Na        11.2780138055       17.5390131531        5.9797872909
 Na         2.5021704741        6.0024521784        8.4106550467
 Na         8.7991929078       10.2219443822        7.3939475228
 Na        11.3806621953       13.0119939271        5.2114696655
 Na         2.0540630508       13.1538860245        6.8818827446
 Na         3.4252967504       14.2078065733       15.3359940481
 Na         7.5433460527       12.3856643033       10.8398338290
 Na        16.4217406693        5.2118414328        0.2056507503
 Na        20.5693463630       18.7846014162        8.8146728750
 Na        20.5187947981        6.1191641968       16.4536357057
 Na         4.5681077248       15.5491823529        1.9352111153
 Na        10.8708619918       15.6791936109       -0.8424933086
 Na         2.5067310406       15.3162290822        9.9410216738
 Na         1.4866491374        2.0182072428       15.3767251464
 Na        15.1634706751        2.1154043194        3.1760491493
 Na        18.7180911428        5.2199606756       13.2624367724
 Na        13.2102560032       12.8176457790       18.8545918115
 Na         4.4663702749        4.7138852198        3.0588637520
 Na        14.4905332648        3.5618853637        5.4601948991
 Na        15.7379831088       14.9529949920        1.9525544882
 Na        16.1398265522        6.9076431127       14.4776567387
 Na        14.7149634711        5.3753948712       17.0383964429
 Na        19.6946334315        7.8351051062        5.4233199339
 Na         4.4310732158        4.1575531462       16.0314852573
 Na        20.0316155368       18.0377174542       13.2458011418
 Na         3.1568670422       11.9222461821       11.6293732595
 Na        17.4499357771        7.1501520967       17.0371276710
 Na         7.0116464574        4.4401886347       13.3287357588
 Na        18.2193287632        2.8280299517       17.4228464962
 Na         3.8543413438        1.5244270250        7.9302163019
 Na         7.2598884804        3.2636722034       16.9152916010
 Na        10.6369322343        3.4169744014       11.7708311675
 Na         4.7667721958        5.4577293522       10.8384431110
 Na         6.3373213718       14.2413880507       17.3865299749
 Na         8.4135495470       18.0904265292       12.8233311957
 Na         4.5972567662       11.1697971623       15.8361795103
 Na         9.8457708751       12.3304987634       17.2903937075
 Na        14.1647114388        6.7690168455        1.7348179776
 Na         8.1480714885        9.9445604225       15.6564728259
 Na         4.4814269262        7.6376622586        2.8463149473
 Na         1.9041211174        9.3347297919        2.5063169438
 Na        17.9737247058       15.2355917949        5.0627949556
 Na         8.4917746635       11.5517421875        3.0271555632
 Na        14.6639575094       12.2263021555       15.2891799902
 Na        15.1138995750        3.8390532690       11.6769082142
 Na         1.8310895144       16.1099098496        4.6242900104
 Na        17.8916790637        3.8914164990        5.9887934405
 Si        16.0494823077       18.8287821967       12.7678976978
 Si         8.2522741131       17.1062322086       18.0979213867
 Si        18.2954225573        1.6660151168       13.2933137217
 Si        10.3107024259        6.7558991339        1.9339577486
 Si        10.4944565435        1.8976091170       -0.0249141402
 Si         2.7825376215        6.1590984984        5.2167019145
 Si        19.7235526133        6.7874690275       -0.0358933713
 Si         7.6008174896        8.2132758647        1.9025297347
 Si         2.6653500028       18.3361269777       16.1714550335
 Si         3.4320799317        6.3675948501       -0.1693355667
 Si        19.0514632720       18.8684440657       16.7197995745
 Si        16.7029110086       20.1574039029        6.2657926165
 Si        16.8317363679       11.5770385545       18.0954203393
 Si        18.2750868754        2.3256815045        1.8509919330
 Si        20.0478439217       15.8856957208        7.4587930845
 Si        19.1358132497       16.8548061435       -0.2273511474
 Si         8.9505161470        4.4619457491        0.1563596319
 Si        19.1755255936        8.3754473997       14.4154654946
 Si         3.9891549869       18.7077666034        0.4794511063
 Si        14.7850806770       15.4084007456       16.6366364562
 Si        15.5007017485       17.9458326905        2.0804676707
 Si        17.5574794893       11.0870137347       15.0436954792
 Si         3.6331095551       16.6861167582       13.6735390612
 Si        20.1343106621        5.8188335445        2.8730274529
 Si        15.7436745768        2.8360870695        8.3364732306
 Si         6.7620485667        2.6638311964        1.2867102418
 Si         1.2640553982        5.4184069555       11.0622023242
 Si        12.1954735866        1.3703419128        6.3726507444
 Si        17.7903705533        2.2134042793       10.1709327099
 Si        19.2110956420        9.9327609115       18.7386701860
 Si         9.6390245121        1.0484698551        4.7992636919
 Si        13.5279660522       16.3578535262        0.0160755622
 Si         1.6581006407        9.9374501981       16.3064590177
 Si         7.0509936665        1.0273375585       11.1105484214
 Si        16.3884479752       18.7605849399        9.8230558521
 Si        19.8761357451        9.8764012173       11.8738949429
 Si        13.6003528823       20.0872593104        9.0210145273
 Si         2.7099625359       10.5452874175        5.0871811776
 Si         4.0936031196        3.4337685195       -0.2089702540
 Si        16.3476241021       17.9267772702       15.5441165972
 Si         5.6969392597       12.6318753917        1.3509725230
 Si        15.2235205182       20.5123056566       16.7080881501
 Si         4.3446020427        1.6411247381       12.4666369696
 Si         2.8373665182       16.4344085593       18.5682921636
 Si         2.3658218932        1.1997429562        4.3300398368
 Si        12.1171941679        1.8919569441       16.6099707848
 Si         9.7457895295       16.8627679635       15.4763505593
 Si        17.1668067317       17.2719963187        7.4381721002
 Si        18.2990966293       13.7621999078        0.1812898846
 Si         8.6480361992        2.0132896775       13.5379888809
 Si        17.0844532079        4.8815734815        3.1346486904
 Si         6.0920921526       20.2451490040       14.7439254793
 Si        11.0365144955       19.4437196820       14.1445891659
 Si         6.7620256271        2.4844375159        4.4182265117
 Si         3.2646859670       18.3092296369       11.0704829218
 Si         8.0559218383       19.6427111161        0.4459577522
 Si        13.1280815463       20.1124643786       12.0853488234
 Si         5.1025589458       19.5737669655        5.1989985860
 Si         0.8187468832       12.0160612101       14.3538261776
 Si         1.2344588984       14.6748283023       12.8797091500
 Si         3.0686411465       13.0244310599        3.1996765231
 Si        13.2100860475       18.8463189097        3.8412643261
 Si        16.5252388664        3.5156531269       15.0795249302
 Si         4.6011507754       20.3441103656       17.3823575249
 Si         1.1200369763        2.9436202715        8.9630332860
 Si         3.9400676778        9.1348072601       18.4094759278
 Si         6.2970611268       18.3782614578        2.5471781760
 Si         1.8802678043        3.0192791799        1.9268194220
 Si         1.5050857006       12.1239172723        0.6803705798
 Si        16.0150132492        1.0719988780        0.2716885879
 Si        18.3422821607       17.0812476479        2.6565312198
 Si        12.0521603726       14.6657401911       15.8110041429
 Si         2.8836827047        4.2714906060       13.4537636470
 Si         6.5557316139       10.1433189765       -0.3397257484
 Si         1.5732452766        3.4749447378        5.8784409400
 Si        11.8794429879        1.8656489835        2.7755691363
 Si        18.8128941851       19.8353234953        4.2244146466
 Si         3.7728077174       13.3973364034       18.4059265497
 Se         4.8207142188        9.6550224111       13.2146921093
 Se         7.7200164734        7.4427356271        6.7198171936
 Se         5.1648330975        4.1394502804        8.3436527138
 Se         8.0375078596        6.5376337460       11.4616117584
 Se        10.1359964612        4.0676208687        9.0130786066
 Se        13.7915361028        5.5040399981        9.7043035495
 Se         4.8688073264       13.2206117268        9.5606961852
 Se         6.8973070046       11.4938848383        5.8528888908
 Se         4.9690797850        8.7931238970        9.3187773450
 Se         8.8723468460       10.1102168154       12.8813909928
 Se        10.8790737034       10.0476482963        4.9207448463
 Se        11.0948633461        8.4268858035        9.3649571940
 Se        12.3753329542        6.7544815311       13.4040897299
 Se         9.9089322645        7.5371498027       16.7172038884
 Se        13.1532526040        6.3441985438        5.8407899728
 Se        15.6008957034        8.3704686506       12.0528942757
 Se         9.7492958924       15.0570333963        3.9225260179
 Se         6.8658113852       16.2449658197        7.6229215488
 Se         9.4519929657       15.1888045895       11.6047169397
 Se        11.0342848457       11.1409220549        0.7574074087
 Se         9.7826502791       12.4098695687        8.7621649797
 Se        12.8569966881       11.8263768114       11.8978215204
 Se         7.7535721072       12.7349584507       15.5892930508
 Se        14.5914297682        9.4968997895        3.2622226049
 Se        14.4197879248       10.3247366586        7.8791501571
 Se        16.7228978727       13.1486925105       10.5391500654
 Se        12.3453445815       10.4592378011       16.2939311330
 Se        17.5503766276        7.5786805306        7.6047948584
 Se        10.1837296554       17.4651212298        8.5563160869
 Se        13.6276932666       16.2115974591       11.8522568414
 Se        13.9455708337       13.6529432064        4.1025719369
 Se        13.0020440300       14.6265957183        8.1909085884
 Se        17.4822264819       12.1071115011        4.5598435457
 Cd         5.8173314585        5.4876510335        6.2353780595
 Cd         9.1386421994        6.7846956406        8.8799429308
 Cd         3.3261718244        8.3172670643       11.4351023881
 Cd         7.7800616900        6.4433521155       16.4925177293
 Cd        12.1335733389        4.7630463388        7.7377076773
 Cd         7.5808257470        3.6476752238        8.6555204052
 Cd         4.9079759633       11.0861891058        8.0178030426
 Cd         6.3834580769       13.7871863700        7.0217544868
 Cd         6.5056578739        8.5673828090       11.5251078276
 Cd         9.7993887564        9.2589647817       18.7990047301
 Cd         8.9635551562        8.4075455880        4.5374747346
 Cd        12.2932721975        8.6523448774        6.6959398560
 Cd         9.9349998082        7.7065641702       12.9988570863
 Cd        13.4113930819        8.1485830391       15.3773435908
 Cd        15.3032984169        6.2725519508        7.7261658573
 Cd        13.3718189654        7.8161060445       10.8162546818
 Cd         9.2803970099       15.1047859698        8.7622343945
 Cd         8.4180315595       14.3336600534       13.7966703524
 Cd         6.2756450400       16.8678034113       15.5209734397
 Cd         8.0747048613       15.1442850297        1.8089354401
 Cd        12.5199955732       11.9470161194        8.7712749865
 Cd        10.5444386692       10.7338126441       10.7076548135
 Cd        11.1866244697       11.3927166858       14.0699778612
 Cd        12.0120310908        9.4502929069        2.6012479327
 Cd        14.9307276565       11.3179736283        5.2221321360
 Cd        14.7761760119       14.6733366880       10.0931375108
 Cd        16.5446032167       10.8297861476       11.7996902243
 Cd        17.6105762938        7.3047197047       10.1539640745
 Cd        12.2071990348       15.3000077732        2.8311534177
 Cd        12.1058765861       17.2267939806       10.0892938949
 Cd        14.5154647589       14.9296762593        6.2592070607
 Cd        12.0110636977       14.3310450499       12.4153320245
 Cd        19.1633558340       11.1774175263        6.1232413151
