417
 i =     9900, time =    19800.000, E =     -8967.2414879534
  O        14.3991879422        2.1424008055        8.6690298322
  O        15.9037121233        0.8787070140        4.7791999251
  O         9.8134874350       17.4518118412       16.7321264832
  O         5.9327619006       11.1050160974        0.4565585133
  O         2.6736610320        6.4925435756       10.3449704897
  O         1.8435861042        4.7832320579       12.3178179797
  O        16.6345712572        6.1920198489        2.1821541289
  O         5.1562200710       15.7737543222       14.3416268882
  O        15.3613234050       19.3304229490       15.7973959727
  O        12.8883424635        2.5658833609        6.1943007127
  O        11.5555799048        2.4170836535        1.0432164414
  O        12.9975707002       19.6548585803        4.8704939157
  O        12.0563955443        7.3969901617        1.4870782827
  O         5.2981097823       18.8608166290       -1.1852307095
  O         6.8745088565        3.8684930481        4.2474205069
  O         2.6580751773        1.9114269974        5.6567957376
  O        19.3307601289       15.9952661397        3.1493358715
  O        14.3482710261       19.6313467552       12.5016915775
  O        18.1726046136       21.0854629989        3.0433744705
  O         6.5996632439        5.1277659003       15.6059437447
  O         1.9929808505       17.8356579500       10.9045523165
  O        16.5866212605        2.9401905263        9.4637527102
  O        19.3981221647       11.8407777168        7.9128827031
  O         3.1214697568        2.8908205111        0.5716877096
  O         5.4442188688        9.3646895018       17.8346596812
  O        17.6489463442       13.6431774239        1.2614960726
  O         3.0426302764       10.2712540338        6.6081764298
  O        18.3569015015       20.0038604587        5.4527539834
  O         0.6718632103        8.6530144130       12.8194444319
  O        18.1081687977       12.8663311194       18.1207900439
  O        15.3474258739       16.8859781002       16.1041340308
  O         4.5726417406        6.2502363044        4.4929227068
  O        12.8805614656       19.5715879515        7.5317530863
  O         3.8193920602       19.6784495821       11.5760925043
  O         7.0536565727        8.7708904867        0.4498376408
  O         3.7643424395       19.4195798864        4.2983593926
  O         0.4592980821       11.3172566821       12.7211451418
  O         9.6226786334       18.8809888088        4.3190020820
  O        12.4164175130       19.6393077647        2.2675105183
  O        18.8350945975        6.7773797793       14.4434648757
  O        10.1475460225        6.4478052951        3.3066302678
  O         2.6063474305        6.8073624433        6.2644031989
  O         9.7971142609       20.0627381206        0.2795709027
  O         2.9236165864       19.1700098573        0.1190483303
  O         0.8082473412       14.8398235236        6.0776779527
  O        19.8622417583        8.4314449809       -0.6343295527
  O         3.1740056486        9.5709874437       16.8391500770
  O         2.6856027048        4.4181104647        5.0138107383
  O         2.6285569934       15.4899658736       13.6548772841
  O         3.4003846848       19.7054596406       16.3303270023
  O         1.8986406327       10.7748618922       14.8321739655
  O        17.5327227667        4.5149203772       16.2154078522
  O        18.6048506205        6.1080590754       -0.7196229981
  O         5.0504624350       13.6049517370       19.4517997743
  O         3.0468953806       16.9616999752       16.6618283944
  O         8.0628709405        5.1708811473       18.4165952670
  O        16.9539724894       17.4350914477        8.8902638718
  O         7.0322849877        6.6894101089        2.2222097835
  O        19.1654832445       17.3771560517        0.9185054101
  O         7.9981316426       18.6748687003       18.2926695193
  O        16.3645805423       11.0960608824       13.9851436977
  O        19.0507354879       17.0967777341        7.3774854900
  O        19.6529930928        3.0869114088        5.1001456964
  O        13.1730219108        2.6623579101       11.9703634784
  O         5.1610751369       18.5745554383        1.5148167236
  O         7.3208078536       16.3656361354       17.2428826038
  O         3.3571787787       17.9876020469       14.3275347044
  O         7.8158147236       10.5260568155       17.8917993346
  O        13.7964053227       14.7498956674       15.5821936591
  O         6.0293418901        1.8315633959       11.3554228641
  O        11.5887277602       16.2056847415       15.2650278370
  O         9.7496183769        3.2323349395       -0.7505839117
  O        15.5367850668       11.7547042932       18.5484044635
  O        18.9210357627        5.7089654456        3.5306646892
  O        10.2739508793        5.3933696408        0.8375381910
  O        19.7480948030       20.2740465060       12.8444215026
  O        18.6671069083       15.2732610620       18.7554427306
  O         5.7362773042        1.6363184863        4.9589898474
  O        13.8935202592        1.5171335889       17.1596657826
  O        16.1321058596       18.8470930700        0.6686925945
  O         7.7311163710        9.2168245479        3.0409423927
  O         6.3644022943       18.5755009742        3.9413283342
  O        16.5702141966        4.1166511314        3.9322043081
  O        18.7527884632       12.0257394143       14.9112624370
  O        11.4989127794       14.0945110057       17.0303608153
  O         4.8165013101       12.6166102673       17.0369738730
  O        20.1063396825        2.1699583794        1.2545881531
  O        13.1550130058       17.2605155279       -0.9647719393
  O         1.9230784327        4.1903087117        9.7656241080
  O        20.1154894514       10.8247876833        0.4609422265
  O         6.9324650123       18.7360621516       14.2390218968
  O         1.6476211501       13.2735107547       14.0927783167
  O         4.1690524513        4.6239701262       18.1575447709
  O         1.2926398303        8.3188390935       15.4407039359
  O         6.6564620132       16.5597480643        2.3450666119
  O        14.3417908946        5.5733174021       19.1225322901
  O         2.7392464386        3.9144482172       14.5822139873
  O        18.3027849272        2.6999727633       14.2713548841
  O        20.3334409176       15.2796108486        8.7571747481
  O         4.2836286606       17.9413019294        9.5604343816
  O         1.0726114563       18.2888187517       15.6006144401
  O        17.8509136478       10.2828415898       18.7728589612
  O        16.4182742489       14.4095121279       15.8485895636
  O         5.7015887804        3.5051776803        0.7245606997
  O        19.1832083268       17.7029945485       17.7192736655
  O        17.8253026316       18.3289145400       15.4650164255
  O         1.6807869190       16.4413760935       -0.4796422994
  O        10.1211450299        1.4435150890       14.2791621647
  O         4.2580933836       17.0374546535       12.0508605126
  O        18.2361607676        9.3198150702       14.8921512089
  O        20.0231035028       10.5003907167       17.1254750360
  O        15.0253082382       19.0988296335        9.1957671192
  O        18.6094090652        9.9469969625       10.7702714076
  O         7.5243572361        1.9824592695       14.4932290767
  O        15.8684328811       17.8134712427       13.7868838140
  O         4.1225326034        6.0261834494        0.9308856297
  O         3.5152641779        2.8074030695       12.2061671911
  O         8.0831089489        1.4106623966        9.6283164273
  O         3.2740903811       14.6320859453       17.6662969783
  O         5.9546969658       20.4278952985       16.1547819075
  O        14.7130642629       16.4359235436        1.1429460888
  O        16.8120603270       15.5959752903        6.8356101076
  O        10.7472519684        1.8946285459        3.5883849612
  O         2.1564252652       17.0476696358        6.8833840749
  O         3.9264557555        9.5647491452        4.1509727450
  O         3.1449106114       14.4188903406        3.1637968292
  O        12.8058103771       14.9125408936        0.3119092344
  O         1.8281342386        6.0486300651       18.6485418926
  O        12.1903040277       17.3858688567        3.6492704828
  O         3.1993028722        8.9278218797        0.1418568492
  O         4.5812168599        5.1709239618       12.8676697245
  O         2.1576925353        1.5661101757        8.9216133752
  O        16.2142870644        4.3987423225       13.8156346892
  O         7.3775941227        1.5913022088        0.0598329646
  O         9.1948375839       16.4160641420       -0.1100653589
  O         4.9210681710       12.3372802546        2.5310498345
  O        16.6969086385       18.3012541227        6.4018946551
  O         5.4084727018       18.8447008811        6.4664863685
  O        15.6828473872        3.9223158617        7.0587101499
  O        12.2157464485       19.9026611457       15.4149560851
  O         7.8600792372       18.7287016117        1.5630683436
  O        19.5565601023       15.5027312556       12.9740721716
  O        16.6657186528        1.5317295182        7.3433110729
  O        18.0988224041        2.6220754068       11.5142202939
  O         1.5541666627        4.4066033501        2.2306338983
  O         2.3585123477       12.1439829065        1.9638250133
  O         1.9633706954       10.0373134655       10.9269238143
  O         1.9371216009        6.7147957195        3.7039551216
  O        11.4056586853        1.3759353194       17.8743161717
  O         5.0274051798        1.2735324029       13.7022776233
  O         8.2635751414        3.8466318163        1.3540219850
  O        11.6455895116       13.7373531482       14.2231288879
  O         7.2446775013       -0.6855030965       11.1074915032
  O        19.1429423980        2.7351729499        8.9391281957
  O         4.0394116260        7.1240220168       17.6943502843
  O         6.9610049817        1.9146246539        2.6705243464
  O        10.4544158430       18.1960536732       14.1901581099
  O         4.6961132670        2.1467369144       17.9367941767
  O        11.8648876653       19.8257953788       12.6083723890
  O         8.9499897417       16.1987429219       14.4663794457
  O         2.7950741956        2.2611522010        3.0136656239
  O         4.2621641216       16.6669141096       -0.2175784307
  O        18.6450760241       18.5752708777        3.1520326155
  O         7.3143956182       13.3011173944        1.4587615062
  O        17.8284698697        3.8983725055        1.5395364995
  O        15.0801062665        1.8923019235        0.7779547741
  O         1.2433609911       19.8202054245        3.9626973866
  O        20.1940048550        6.9651819859        1.5119151253
  O         8.3837348678        1.7767274655        4.9653256974
  O         9.1725015025        3.7682208083       13.3763722437
  O        21.3974123845       14.0180015005       11.5783568431
  O        13.1603760244        2.9127931355        3.0776907437
  O        14.5863533415       18.3599279566        2.7999756625
  O         2.8333534642       12.1251241384       18.6494571616
  O        16.8667881490       16.9068628367        2.3001372119
  O        17.5952001556       19.9419253495        9.9099285592
  O        14.9472325641       15.3359917701       18.0670394418
  O         8.5391733017        1.4812958385       12.0936714995
  O        15.4875849185        7.5742244774       16.1192290213
  O        16.8487702410       11.0825853804       16.4842353262
  O        16.3185275520       20.5250086455       17.9234922811
  O         1.7320472101        3.7045709659        7.3095696342
  O        16.8944213056       20.2001217566       12.8226322024
  O        15.9450776610        2.4638588615       15.6025739755
  O        10.7883329993        0.9899028558        6.0566841242
  O        12.3096179124        3.2653438681       15.9096063885
  O        16.3128147671       18.1990392444       11.2780462152
  O        17.8353583767        1.4874914583        0.4910765223
  O         1.2509515829       10.1383352179        4.5984940609
  O        20.1998880428       13.5315774657        0.2743640235
  O         3.1298291367       12.0585501224        4.5113277063
  O         9.3656992959        7.8819336001        1.3001339180
  O        19.3588795357        5.8505732774       10.8067523371
  O        12.9347016640       20.0000118061       10.2386833673
  O        19.2076083527       20.3326780525       16.8966342784
 Na        19.9128331500       13.6719031576        2.9010853468
 Na        11.8851450889        4.7746976832        3.6297683438
 Na        15.2646683986        9.4246835971       17.4878779724
 Na         6.1320535040       16.8818492284       10.5906981141
 Na         4.7937589103        8.1700341125        5.8214617532
 Na        17.4841777220       14.7134084828       13.4146799374
 Na         1.7541107519        1.4748693344       11.1967438467
 Na        18.0206006474       13.7333472507        7.6213270019
 Na        17.5070266418       10.4240365874        8.3401019361
 Na         7.6065488549       16.8788780437        4.9206717800
 Na        10.4803149509        4.4507662472       15.1829297794
 Na         1.4827178914       10.0804002502        8.5110513469
 Na         6.3411468041        6.4821684685       -0.2747867707
 Na        10.3524116981       18.2573622914        2.3059009920
 Na        12.9878087111       17.7186188177       16.1625127377
 Na        10.4242543094        0.7262297846        9.6227515727
 Na         8.2683254389        5.2932186022        3.2783546083
 Na        18.6113507399       14.1650846774       15.9145430104
 Na        13.9737545331        3.1383333268       14.1132558784
 Na         5.8346442619       10.6487394259        3.6930780355
 Na        16.7809186882       11.3721577331        1.7909798698
 Na         0.7933378103       12.9848111977        9.9248635722
 Na         7.3346324592       18.9228950371        8.3536812870
 Na        13.8727471902        3.6302486886        0.6828587981
 Na        19.3015964586       16.4433191362       10.4494793639
 Na         4.3552897760       17.2392914022        7.4055867765
 Na        16.1801620148        7.2619081157        4.4959503656
 Na         4.9269973941        6.5013561498       14.6384522407
 Na        12.2034926672        6.2436446149       18.6774074802
 Na        20.1228022585       19.6357593877       -0.0536710079
 Na        13.2700652309       19.4030165729       19.4107052603
 Na        11.1167432384       17.4669237960        5.5670397251
 Na         3.0478866217        5.6945431094        8.1907084594
 Na         8.8909014733        9.9626146665        7.1537665557
 Na        11.6433374227       12.8055051909        5.1091105898
 Na         2.3633170266       13.1709494801        6.8353070183
 Na         3.7714074324       13.9624146150       15.1240816588
 Na         7.5411260294       12.3921710238       10.8336563181
 Na        16.5662728664        5.4298363258       -0.0028979089
 Na        20.3367135999       19.1794596647        7.2706658980
 Na        20.7473169215        5.7897768403       15.4484688493
 Na         4.5608707855       15.6342261193        1.7452898714
 Na        11.0951099557       15.7079182073       -0.9894659953
 Na         2.9649552181       15.5111023818        9.8399717156
 Na         1.1556897768        2.0547567331       14.7975567468
 Na        15.5340347120        2.0479328161        2.9961849022
 Na        18.7176763203        4.9892550475       12.8535572102
 Na        13.4761666814       12.8953916551       18.6450941995
 Na         5.1084919291        5.1183398655        2.5432304497
 Na        14.7262109408        3.3100286124        5.0909722359
 Na        15.9466722323       14.8839246207        1.8969415110
 Na        16.4365323225        6.8377284384       13.9912939052
 Na        14.7462099430        5.4374904959       16.8039772464
 Na        20.0026084681        7.6636911145        5.4595545294
 Na         4.6385053525        3.7714595680       15.7366388689
 Na        20.2716545416       17.9699687885       13.0874936630
 Na         3.2086507941       11.8698048706       11.7350400742
 Na        17.5890558713        6.6546617657       16.5136847495
 Na         7.0095500591        4.6220626027       13.1506530410
 Na        18.3695478299        3.2331203631       17.9189215609
 Na         4.0981484637        0.6296814644        8.3525318101
 Na         7.3375413414        3.1033132402       16.9938911514
 Na        11.0958743692        3.8811362715       11.6290323250
 Na         4.8498482937        5.3287739961       10.5674610381
 Na         6.7492909529       14.0430295692       17.4301959237
 Na         8.6030777734       17.7109961709       12.5792719688
 Na         4.8559557950       10.9113109982       15.7504430596
 Na        10.1017038004       12.2039001997       17.2606834424
 Na        14.5942601312        6.8327719000        1.5041797386
 Na         8.1578583465       10.0862034220       15.6610070354
 Na         4.4774869237        7.8098259688        2.4968104102
 Na         2.0899891781        8.9591100253        2.2059686046
 Na        18.2328670380       15.4833241793        5.0690524318
 Na         8.7869713019       11.7816496437        2.4122983078
 Na        15.0163806805       12.7315097611       14.9970714798
 Na        15.2778491151        3.6948886115       11.4414445155
 Na         2.1498593298       16.1845967335        4.5631303305
 Na        17.7414721645        3.7632326810        5.8290699726
 Si        15.8230538411       18.9279713303       12.6027341905
 Si         8.5619689418       17.1645181928       17.9558561610
 Si        18.3271857880        1.6619373442       12.8904106506
 Si        10.5466380622        6.7962031995        1.7857699120
 Si        10.6875285753        2.0107996482       -0.2412573085
 Si         3.0326902282        6.0055253486        4.9148572611
 Si        19.8662016322        6.8928193993       -0.1673082453
 Si         7.7521171641        8.1445270798        1.7986175455
 Si         2.7187251054       18.3119578346       15.7822217407
 Si         3.4592351321        6.0464518445       -0.5213247317
 Si        19.0914201174       18.7573649355       16.4933040670
 Si        16.7980621001       19.8660417117        5.9862327707
 Si        17.0321242763       11.6044823458       18.0464769532
 Si        18.4817799659        2.3710617517        1.6628035865
 Si        20.4119113830       15.9356273864        7.2778173779
 Si        19.4623807104       16.6576550685       -0.4564942080
 Si         9.0942035661        4.5427121210        0.0910920027
 Si        19.4288395437        8.2628826409       14.3363375676
 Si         4.2950123432       18.4332249031        0.0848952159
 Si        15.2248713506       15.2533136654       16.4688351830
 Si        15.5982715936       17.7266985439        1.7425603749
 Si        17.5968024353       10.8448281901       15.0133381892
 Si         3.8837853331       16.5564015773       13.5885597467
 Si        20.3259061914        5.8354888533        2.7347689308
 Si        15.7529813048        2.6790819960        8.0512918984
 Si         7.0961174918        2.6930661312        1.2185295477
 Si         1.4793454756        5.4588351690       10.8148067661
 Si        12.4208296199        1.0619870628        6.1364051829
 Si        17.9340412521        2.2016974373        9.9251839730
 Si        19.4532135748        9.9781507407       18.5881514924
 Si         9.8359193811        0.9610526876        4.7163769136
 Si        13.8860815246       16.0014892783       -0.2579583099
 Si         1.7715011819        9.7920081689       16.1258937763
 Si         7.3972330218        0.9319864695       11.0081571475
 Si        16.4944194632       18.7259284784        9.7232688118
 Si        19.9280483046        9.9050350410       11.6922380542
 Si        13.7940563329       20.0314597901        8.8098071176
 Si         2.7854758045       10.4324948221        4.9756190522
 Si         4.4389216358        3.2406040530       -0.2899160414
 Si        16.2173812958       18.0128974724       15.3358083676
 Si         5.9394344674       12.6077072261        1.1313097717
 Si        15.4054598516       20.7371748779       16.6266800382
 Si         4.6123290608        1.5726255779       12.1977736957
 Si         3.1074678789       16.2056575488       18.1231337471
 Si         2.6064190180        1.1885223109        4.2424743000
 Si        12.3526853304        1.8258590083       16.5662858302
 Si        10.1526943212       16.9517567286       15.1892799772
 Si        17.3722762498       17.0676971059        7.3168862203
 Si        18.5795284840       13.7562036809        0.0455003591
 Si         8.8557551093        2.2228968867       13.4920748848
 Si        17.4134002753        5.0045681209        2.8732227053
 Si         6.3868228822       20.1412226517       14.5849893119
 Si        11.1784421626       19.6195795307       14.1325578807
 Si         7.0386249480        2.3228909852        4.3065963145
 Si         3.5127559411       18.1455659506       10.9741629278
 Si         8.2122615868       19.5448946724        0.2494006812
 Si        13.1497447069       20.4584306206       11.8100015130
 Si         5.2835260270       19.4139134452        4.9689623341
 Si         0.8329072811       11.8407314592       14.1645929715
 Si         1.4824501461       14.5893145382       12.9520722549
 Si         3.4144715248       12.8181225519        3.0720576550
 Si        13.1108844991       18.6706326588        3.5328799130
 Si        17.0170100569        3.6572683208       14.9986239278
 Si         4.7791650658       20.0685336817       17.2099912835
 Si         1.4034430186        2.9763355193        8.7325209251
 Si         3.9173567301        8.7501245965       18.1333745706
 Si         6.5005728660       18.1188563882        2.3461490346
 Si         2.0152214591        2.9212897621        1.7583019183
 Si         1.7144872010       12.1275895493        0.4587974838
 Si        16.2665443969        1.0286441889        0.2375528112
 Si        18.5357639672       17.1546697812        2.4380454630
 Si        12.1371386693       14.5847537802       15.6246746890
 Si         3.2370225609        4.2375507914       13.0565297658
 Si         6.5986725377       10.0438042195       -0.5562455451
 Si         1.6978240830        3.3285370149        5.6641056384
 Si        11.9999352263        1.8305348859        2.6123279703
 Si        18.9364961794       19.9387562417        3.9673033709
 Si         4.0229962795       13.2183640404       18.2242622233
 Se         5.1086505716        9.2122244385       13.0104703202
 Se         8.1132356309        6.8489272869        6.5349846989
 Se         5.3479926957        3.6713589821        8.0627133601
 Se         8.6519991451        6.7307914805       11.4549617341
 Se        10.3003077940        4.0084453044        8.9093946032
 Se        14.0251931121        5.3451937450        9.7653581093
 Se         4.5306596058       13.2627573267        9.1673687071
 Se         6.7313413993       11.4816207533        6.1384760019
 Se         5.4580806160        8.4692864057        9.0493726417
 Se         9.4069087691       10.6388104793       12.5199141744
 Se        11.1780179461        9.9472252468        4.8196597323
 Se        11.5373223289        8.5328746485        9.1029993216
 Se        12.5070169956        6.5134278817       13.4726282266
 Se        10.0692203208        7.8519581614       16.4363905751
 Se        13.5849506255        6.3778476146        5.8535355073
 Se        15.9017120764        8.2758305032       11.5623177475
 Se         9.9587009979       14.9468144064        3.5963623552
 Se         7.1940438300       16.1668287336        7.5802929859
 Se         9.2330557354       14.9457033246       11.3894218467
 Se        11.1040464537       11.1303229485        0.6862819482
 Se        10.2272578169       12.3624602174        8.1472397748
 Se        13.1607601621       12.0345711884       11.3795351985
 Se         7.6418229464       12.7025210496       15.3716243701
 Se        15.0056170866        9.2376654098        2.8570142720
 Se        14.7050018517       10.7085899244        7.4295721927
 Se        17.0574067705       13.3160614442       10.8285085317
 Se        12.5423604477       10.5851847446       15.9957600057
 Se        17.9475892125        7.2926663498        7.6428842532
 Se        10.1359886520       17.4972845710        8.4190854954
 Se        13.6440631494       16.3056088742       11.7181873437
 Se        14.1046368536       13.6744039971        3.7393406818
 Se        13.5147503953       15.0104546931        8.0222180194
 Se        17.4013240309       12.5517081179        4.8128920580
 Cd         6.1679706272        5.1353596616        6.0486168411
 Cd         9.4334333970        6.7808876989        8.8929818799
 Cd         3.4737579567        8.3320930380       11.0798874666
 Cd         8.0489761639        6.3096989930       16.3650621833
 Cd        12.3844496080        4.5212922671        7.4201150093
 Cd         7.8232551639        3.3400618340        8.6222703701
 Cd         4.7232174774       10.7507382983        7.8734370790
 Cd         6.2293562025       13.7556634288        7.3609233209
 Cd         6.9210394284        8.5775746171       11.2358512699
 Cd         9.9021595835        9.2615786141       18.6938020163
 Cd         9.1782731049        8.2740381134        4.5796770889
 Cd        12.7244907631        8.7349249354        6.7503445062
 Cd        10.6030003302        8.0895876168       12.8171086318
 Cd        13.7826055987        8.4148524418       15.0515011036
 Cd        15.6302459822        6.1373390631        7.7473197930
 Cd        13.4475059484        7.4847507310       10.9834478982
 Cd         9.3548441388       14.8941387710        8.7346159922
 Cd         9.1586892638       14.0323496970       13.9117859213
 Cd         6.7818500617       16.7511627007       15.2163411395
 Cd         8.3328240646       15.3615014286        1.6627967766
 Cd        12.9146960346       12.3812935858        8.2713157281
 Cd        10.8143061187       10.8698720736       10.2877568621
 Cd        11.8476294356       11.3974414002       13.6797886265
 Cd        12.3265421482        9.4531374514        2.4079744471
 Cd        15.2530478269       11.0010274281        4.8020793222
 Cd        15.1758676309       14.6799092913       10.2584953304
 Cd        16.4617510657       10.8385535161       11.8264523690
 Cd        17.9967162894        7.5822387876       10.3056891949
 Cd        12.2475057374       15.1466891767        2.3936560271
 Cd        12.2538682149       16.8481969800        9.7363425846
 Cd        15.0193339300       14.7813579617        5.7781091807
 Cd        11.8283109325       14.3572584549       11.8929972598
 Cd        19.1488367010       11.1385360212        5.9492734824
