417
 i =     6700, time =    13400.000, E =     -8967.2418080771
  O        14.2248839279        2.2714153999        8.7981363730
  O        15.6574158704        1.0704456348        5.2725374515
  O         9.4624079939       17.5588650086       17.0959108420
  O         5.7333494924       11.0587780977        0.8951967961
  O         2.4568404656        6.5242062884       10.5572043088
  O         1.6921583258        4.8601143446       12.4885809015
  O        16.6725099063        6.5450274989        2.7238262800
  O         5.0807568840       15.7440134584       14.1999403847
  O        15.3993718126       19.1869987532       16.3798840724
  O        12.8251354306        2.7460523965        6.0784550141
  O        11.6161095694        2.2280409803        0.9519211132
  O        12.9008383410       19.3936854786        5.1791593487
  O        11.6732503745        7.1434939045        1.5802292383
  O         4.8841720689       19.1192028478       -0.7458032322
  O         6.4792373969        3.8112145016        4.4810256505
  O         2.6022616143        1.9333398126        5.8200756746
  O        19.1486324506       15.9917426059        3.2501414521
  O        14.2233627032       19.6999513899       12.3529446724
  O        17.9542435445       20.9935138734        3.4169320213
  O         6.3787726166        5.0563620569       15.5350906509
  O         1.7862453932       18.0325305084       11.0344656161
  O        16.5399161612        2.7960568445        9.8746378751
  O        19.6513409789       11.6827321206        7.7366599831
  O         2.6925020155        2.9614567854        0.6757647119
  O         5.1577474847        9.6759449186       18.0034940334
  O        17.7174823973       13.4134835398        1.4231803347
  O         3.1030765513       10.4599092634        6.4912544078
  O        18.2208897785       19.7327835542        5.7677715619
  O         0.4499354478        8.5774481748       12.7085596670
  O        18.0092700317       12.7740185803       18.0835475809
  O        15.8342854125       16.6780870974       16.0739001505
  O         4.3392584912        6.3424303131        4.9375545581
  O        12.6632302225       19.8983844050        7.7929570005
  O         3.7212880640       19.6075611331       11.8142721125
  O         6.5257149790        8.5889499216        0.4762196252
  O         3.5383413477       19.2021617556        4.4814423559
  O         0.6190140197       11.3239465078       12.6494653103
  O         9.5512981012       18.7695245698        4.6866318049
  O        12.4408821432       19.7077660721        2.5648012375
  O        18.5544555880        6.8386582102       14.4686762654
  O         9.9605848127        6.3135484398        3.4340234476
  O         2.2431840648        7.1573009859        6.4678184576
  O         9.7393272990       19.9160253134        0.5282367520
  O         2.4840213270       19.1405558304        0.6132346016
  O         0.5155111110       14.8790490315        6.2295391569
  O        19.5233310463        8.2981333012       -0.1848624225
  O         2.9587718857        9.2747908702       16.8826579052
  O         2.6122243291        4.6058435100        5.3605780548
  O         2.3541127760       15.7834955957       13.7387614678
  O         3.0648598854       19.5979127916       16.6827056675
  O         1.7578034821       10.7864623547       15.0844297768
  O        17.1578333380        4.3830389940       16.2558969871
  O        18.6289502594        5.9103165966       -0.7467914225
  O         4.9986466689       13.5108575161       19.1055156561
  O         2.5616989483       17.0408743811       17.1692283883
  O         7.9721447365        4.9886064350       18.2978757192
  O        16.6799221922       17.3056988033        9.0445152520
  O         6.7410231055        7.0007750432        2.5304514031
  O        18.6208224899       17.5611144855        0.9770286595
  O         7.7065955145       18.6040681812       18.6283374549
  O        16.5634007569       11.4954999546       13.8130530664
  O        18.6773403508       17.0447561793        7.3831228333
  O        19.7479791628        3.0529431562        5.0397547685
  O        13.1307963223        2.7478325721       12.3239708694
  O         4.8514850852       18.5261125795        1.7696183662
  O         7.0299459337       16.3938137961       17.3973216406
  O         3.4352671452       17.8294313128       14.7297288071
  O         7.7567550975       10.3649801939       18.2899718194
  O        13.4851805255       15.1707686866       15.6087125812
  O         5.8396964682        1.8470882010       11.6626233834
  O        11.2397936321       16.2190531632       15.6044505637
  O         9.6684600492        3.0511653816       -0.5753178889
  O        15.3649353580       11.7566319381       18.5061734140
  O        18.9687376959        5.6617306962        3.8386205003
  O         9.9523498232        5.2840025932        0.8217314920
  O        19.3589669855       20.0685412298       13.3343984398
  O        18.2555292292       15.2216528152       18.8329726084
  O         5.5250893146        1.5051622609        5.2453804069
  O        13.7388965247        1.5751102885       17.3952684534
  O        15.8941538040       19.0234052216        0.7593388898
  O         7.8006738119        9.5569876162        2.7895858088
  O         6.0647250796       18.6547206437        4.0758755626
  O        16.4514013880        4.3307551828        4.3639687524
  O        18.8450370710       12.1075410560       15.0427792320
  O        11.5270055633       14.0195198426       17.1641337574
  O         4.2154200729       12.8455054270       16.6255847420
  O        19.7836653252        2.2766024187        1.5832454298
  O        13.1102082141       17.5064456703       -0.8122193232
  O         1.5950595923        4.2309117247        9.8002340067
  O        19.9797426202       10.7084836507        0.4840801442
  O         6.7465153104       18.7909498521       14.3947296954
  O         1.6286308964       13.2946733612       14.0482135973
  O         3.8540755712        4.5826044548       18.2664320656
  O         1.0311618477        8.2348163061       15.2964085724
  O         6.5163517475       16.5678303037        2.6193950364
  O        14.4773370294        5.6031752552       19.4740251184
  O         2.2706587262        3.9921578912       14.8300217001
  O        18.0348695783        2.6805633916       14.3969195942
  O        19.5502938975       15.0342321300        8.8592143750
  O         4.2961467360       17.7912150156        9.7097737357
  O         0.9356736521       18.4799405961       15.6746552874
  O        17.5937702492       10.2968876537       18.7551656628
  O        15.8957186149       14.0808060468       15.7884019550
  O         5.3433219429        3.2406945022        0.8105990146
  O        18.7520198062       17.5002696513       17.5958827123
  O        17.8086966027       18.2542093033       15.3814106330
  O         1.1381620757       16.2856166543       -0.1715507519
  O         9.8642254728        1.5306109580       14.4558918899
  O         4.0406646582       17.0930466073       12.2176796594
  O        18.1573245716        9.4754010809       14.4578412099
  O        19.7408562491        9.9458493903       17.2464845619
  O        14.8508793331       19.1488064966        9.2839465196
  O        18.5189594523       10.0134498320       10.8296648988
  O         7.3760812911        2.0665830909       14.6156720084
  O        15.7976171394       18.0959912500       13.9144779481
  O         4.2264803731        6.0695669254        0.9582791795
  O         3.2724161491        2.7251215907       12.5530976743
  O         7.6648411132        1.3847312589        9.6919376706
  O         2.8696538253       14.5995593056       18.1766733418
  O         5.6547209440       20.3614654508       16.3433777737
  O        14.7977757829       16.5531231930        0.8895866853
  O        16.5375574092       15.6171671711        6.9405777309
  O        10.4908905524        1.6671252566        3.4814714010
  O         1.8726032453       16.8341875072        7.5895059802
  O         3.9029522454        9.5327027228        4.0006201367
  O         2.6584581514       14.4915517671        3.3029084251
  O        12.6624459482       15.0758714735        0.4816115823
  O         1.8022718421        6.1231108048       18.7151839148
  O        12.0908091744       17.3096951629        3.6999821667
  O         3.2112382598        9.0612361240        0.3769460521
  O         4.2839487341        5.0558050192       13.4025163009
  O         2.1816182532        1.6591687443        9.1013244565
  O        16.0206023576        4.2135308249       13.7182211812
  O         7.2029749030        1.5252808411        0.3012377688
  O         8.8948008230       16.2417571156       -0.0339065263
  O         4.8496106684       12.9320026867        2.4046025157
  O        16.3173625292       18.2880645041        6.7161755016
  O         5.1342364517       18.7526167697        6.6738404968
  O        15.8632830919        4.0368049292        7.5108429225
  O        12.1501711448       19.9223655625       15.5622357588
  O         7.5745561277       18.8970597291        1.8734587334
  O        19.2052244813       15.2684205918       13.1901996887
  O        16.4947860671        1.4224037266        7.7183385161
  O        18.3686697398        2.3810172383       11.6681143123
  O         1.5586219799        4.3429825707        2.4506588389
  O         2.2330992505       12.2154121542        1.9965875631
  O         1.8146699143       10.0505689728       10.7288693183
  O         1.9731678590        6.6153291575        3.8201890941
  O        11.2660859714        1.1219282988       17.8969272730
  O         4.9227513333        1.3348782731       13.9172568972
  O         7.8303248209        3.8922410637        1.3232610362
  O        11.2762196461       13.7986944398       14.4881809755
  O         6.7040395269       -0.7500792511       11.0652234191
  O        19.0351555413        2.2310853798        9.0727221100
  O         4.0190313631        7.2202869143       17.8817880104
  O         6.5441974879        1.9033564697        2.7405305782
  O        10.3027786713       18.3069472154       14.5623427121
  O         4.2513942750        2.1572040604       18.0192008086
  O        11.7358978373       19.8925015510       12.9335773686
  O         8.6930052352       16.3295074744       14.7645392960
  O         2.7821932259        1.8983519133        3.0764467101
  O         3.8203207959       16.7863093179        0.1129738057
  O        18.3595472700       18.5630053659        3.2635214086
  O         7.2270950835       13.2679609810        1.2308570687
  O        17.8066256526        4.0301706125        2.1365103009
  O        14.7431096102        1.9587018945        1.0163083023
  O         0.9953839774       19.6878387851        4.2982908978
  O        19.9310639018        6.6242734474        1.6169632810
  O         8.2997046017        1.7875598738        4.8281772286
  O         8.8482202614        3.5650690640       13.0099792816
  O        21.1504071248       14.1772670407       11.5225879182
  O        12.8550992963        3.1650125841        3.0988601990
  O        14.6057107297       18.3663800799        3.0368391454
  O         2.8997805497       11.9755569812       18.7731420235
  O        16.7057250523       16.8243720795        2.4454736322
  O        17.5487429003       19.6693879321       10.0302650652
  O        14.6153160185       15.1943772505       18.0352719346
  O         8.3414680819        0.9620091923       12.2437546718
  O        15.1687258305        7.3360880347       16.3425132326
  O        16.7795188330       10.9794345356       16.3868777600
  O        16.2701646976       20.9576462762       18.1077146461
  O         1.3635554332        3.6644225012        7.4436341380
  O        16.6440041147       20.4033144955       12.8398523844
  O        15.5864587034        2.4234639482       15.6949373224
  O        10.6961987146        1.3139244477        6.1211289747
  O        12.0813799216        3.1637728903       16.0811412383
  O        16.0038112478       18.0872426470       11.4237753292
  O        17.4762466971        1.7811386785        0.8892080162
  O         1.3080446677       10.1574240771        4.4925676129
  O        20.0866356635       13.3205479659        0.0371544183
  O         3.1725929492       12.1951689033        4.5221527645
  O         9.0042676416        7.7051513170        1.2835236071
  O        19.2293440589        5.9560153444       11.1237027911
  O        12.5905190785       20.2464136869       10.3894092365
  O        18.9918463087       20.1227630202       17.3085524407
 Na        19.7779263309       13.7488795856        2.9705725218
 Na        11.4250836655        4.6751730505        4.1095802074
 Na        15.1086618746        8.9245742294       18.0399965788
 Na         6.1230367494       16.5284391102       10.4846011131
 Na         4.7887898270        8.3371765799        5.9826336009
 Na        17.0892769260       14.1169679295       13.4194225069
 Na         1.5684517611        1.2944850833       11.5144948140
 Na        18.0819200573       13.8018092985        7.6097678242
 Na        17.8028124746       10.4946633815        8.5410408700
 Na         8.0689495761       17.1946330635        4.7781050733
 Na        10.3749063301        4.0664480351       15.0352318762
 Na         1.7733139522        9.9971540067        8.2106706257
 Na         6.3905718310        6.0545255416        0.2520276820
 Na        10.2281906459       18.2416033842        2.6325141127
 Na        12.7505807102       17.7146931303       16.4099347720
 Na        10.0009961591        0.9445501085        8.7058602785
 Na         7.7971020499        5.2648850980        3.6132119697
 Na        18.1330095794       14.2891449146       16.2945256524
 Na        13.6862165615        3.5944766069       14.3100500337
 Na         5.8667218996       10.2910173861        3.3893113116
 Na        16.0809975985       11.6991576883        1.6821204906
 Na         0.2671758610       12.8229660203        9.8113037447
 Na         6.6279206500       18.8710586397        8.5647763838
 Na        13.5988935948        3.7792469324        0.9169906160
 Na        18.6233140557       15.6934322107       10.7880228803
 Na         4.0865380653       16.9325460291        7.7320964207
 Na        15.9130109612        7.5500220161        4.8405427378
 Na         4.4274831110        6.7253725198       14.8797856002
 Na        12.4305720273        6.5284801968       18.9099957304
 Na        19.9202240715       19.6190841930        0.3571526354
 Na        13.2775876922       19.4499778970       19.5899143407
 Na        11.2869447531       17.6107516609        6.0082924636
 Na         2.3141187185        6.0192466466        8.2831805422
 Na         8.6472641753        9.8500512463        7.2669233298
 Na         9.7652657370       12.6468985679        5.7131655933
 Na         2.0055931672       13.0615564699        6.6073622249
 Na         3.9925952781       13.7837660053       14.5073248525
 Na         7.5386562752       12.3893031583       10.8389810192
 Na        16.6777523699        5.9306844071        0.5384971822
 Na        20.5795395198       18.7057305545        8.8286955357
 Na        20.1867941210        5.5258363450       15.8895370826
 Na         4.4282252752       15.4810297205        2.1793880642
 Na        10.8855079793       15.8462489528       -0.9469904365
 Na         2.2264387197       15.3987242741        9.8045325975
 Na         1.1595992740        1.9548290663       15.3495351860
 Na        14.9681542175        1.9050107107        3.3236845061
 Na        18.7870612273        4.8590620089       12.9445122228
 Na        13.2359856487       12.7452263575       18.9438927636
 Na         4.4502355994        4.8192075386        3.2481372490
 Na        14.7427095610        3.5890147433        5.4960940364
 Na        16.0153184545       14.7948004274        2.1112094838
 Na        16.0551696537        6.7237102822       14.0021170859
 Na        15.0560417189        5.1116794639       17.3062359492
 Na        19.7953728551        7.8703611006        5.4123278924
 Na         4.3054796190        4.1693801406       16.0946399383
 Na        20.0393535369       17.7082810331       13.3140217685
 Na         3.0923406397       11.9182720089       11.4313174836
 Na        17.4143524636        6.5433231412       16.5687606116
 Na         6.6483380939        4.6824821085       13.3952909073
 Na        18.2862244341        2.9412847906       17.9145392826
 Na         3.9665244952        1.3489640295        7.6405793511
 Na         7.1231559044        2.9423030486       16.8995327985
 Na        10.9920594225        4.1682762589       11.8783449131
 Na         4.5163295338        5.0890499000       10.8458554189
 Na         6.6402187427       14.1941585869       17.7800625473
 Na         8.0559890813       17.7143509974       12.6723754347
 Na         4.8672827189       10.6877757742       15.9448361598
 Na         9.7765614680       12.4812715720       17.0873225427
 Na        14.2448206957        6.3174932158        2.4003711226
 Na         8.1298459598        9.9085705654       15.4000606145
 Na         4.2690159620        7.6073523212        2.5012200333
 Na         1.6970627178        9.2647918809        2.1952297712
 Na        17.9864467973       15.4263593312        5.1766235557
 Na         9.0638647396       11.7985851292        2.3715350593
 Na        14.8913354381       12.1193550468       15.2907453781
 Na        15.2487052961        3.2483644294       11.8263193723
 Na         1.5512747432       16.3024843944        4.5939522633
 Na        17.8564663530        3.7459727243        5.9836923137
 Si        15.7071423710       19.0833302257       12.6495338858
 Si         8.2021052770       17.1001278640       18.1869101709
 Si        18.1845958831        1.6403909445       13.1225368640
 Si        10.2196225876        6.6717124680        1.8777606434
 Si        10.5279663981        1.7744844161       -0.1472886787
 Si         2.7231739694        6.2253669337        5.2877113709
 Si        19.7730322705        6.6634952764        0.0096019853
 Si         7.5081301563        8.2270120642        1.8232216788
 Si         2.4900813347       18.1937845373       16.0294953034
 Si         3.4250032983        6.0448024907       -0.4149199095
 Si        18.9256110593       18.7840218256       16.5459445759
 Si        16.6206141361       19.8759424427        6.3212931703
 Si        16.8463821294       11.5304793637       17.9719260135
 Si        18.2734316108        2.4907802545        2.0892223212
 Si        19.9495581881       15.9049111153        7.5243344457
 Si        18.9322455558       16.6978255403       -0.3482304526
 Si         8.8921615812        4.3941869522        0.0545029077
 Si        19.1683681770        8.2681467424       14.1907164192
 Si         3.8545648022       18.4071526546        0.4365405982
 Si        15.0051310901       15.2080424233       16.4099401525
 Si        15.5330986244       17.7668994284        1.7978297611
 Si        17.6255986327       10.9895128541       14.9314845474
 Si         3.7543163199       16.5613543128       13.7371069973
 Si        20.2748732544        5.7298856825        2.9275429251
 Si        15.7760074578        2.7626164606        8.4212755840
 Si         6.7480520675        2.6414332589        1.3162964346
 Si         1.3640011941        5.4265991003       10.9728589457
 Si        12.3704198048        1.2166105961        6.2612284208
 Si        17.8572754669        1.9026496775       10.0907940448
 Si        19.1999057888        9.7889448612       18.7962684376
 Si         9.7145675755        0.9730170760        4.7978313481
 Si        13.6472987073       16.1276936731       -0.2354028414
 Si         1.5491336593        9.5428553680       16.1725159935
 Si         7.0877125677        0.7805881169       11.0791334614
 Si        16.2801048949       18.6184342764        9.9305561362
 Si        19.8975685980       10.0001414266       11.6622377932
 Si        13.6142276183       20.1796059718        9.0656468125
 Si         2.8758752844       10.4754391996        4.8577021729
 Si         4.0474025650        3.1768036163       -0.1484035595
 Si        16.2129118148       18.0561349903       15.4694157912
 Si         5.7693764201       12.6811260730        0.9961513644
 Si        15.2717255705       20.7208029058       16.8322769209
 Si         4.4557555441        1.5267781806       12.4292725143
 Si         2.5804782161       16.1444273988       18.5262647466
 Si         2.4464273087        1.0006059488        4.4889286232
 Si        12.2574746462        1.7042370287       16.6714467629
 Si         9.8451567952       17.0718474972       15.5358725017
 Si        17.0459489000       17.0512780986        7.4579926589
 Si        18.4280856633       13.6872501002        0.0715601684
 Si         8.6196384921        2.0679209990       13.4619728057
 Si        17.3110703052        5.2172216260        3.3468516909
 Si         6.2637744716       20.2300680040       14.7126646929
 Si        11.0533649548       19.7649630674       14.3933064029
 Si         6.7244567329        2.2786067192        4.3820771710
 Si         3.4247724978       18.2002494401       11.0703026841
 Si         8.0670773301       19.5527434372        0.4547758812
 Si        12.8775339830       20.6342401895       12.0460515211
 Si         5.0376551663       19.2615052953        5.1693679296
 Si         0.8514088999       11.8805291808       14.1925260077
 Si         1.2967837451       14.6431380220       12.9731996655
 Si         3.2937437909       13.0424811951        3.1045598268
 Si        13.0384077151       18.6073378773        3.6806545338
 Si        16.6734788246        3.4949683826       14.9934257459
 Si         4.4619458647       20.0359799774       17.3837318636
 Si         1.2518174080        2.8694832340        8.8709659587
 Si         3.7847271198        8.8105668093       18.3521605385
 Si         6.2501651104       18.1392275636        2.4941305481
 Si         1.8897607913        2.8198947145        2.0892403901
 Si         1.6319749043       12.0561702491        0.4861180489
 Si        16.0024648769        1.2618047053        0.3617743736
 Si        18.3493233566       17.1185210373        2.5251139662
 Si        11.8895255941       14.6460150981       15.7463350386
 Si         2.9638871424        4.1805453006       13.4029294117
 Si         6.3567473483       10.0277639083       -0.3102089483
 Si         1.6472604496        3.3612944386        5.8224638940
 Si        11.9073853166        1.9303563558        2.5891266934
 Si        18.7083913860       19.8065721043        4.2175189637
 Si         3.7758226710       13.2018067774       18.0334946965
 Se         4.8863248343        9.4029765477       13.0309189879
 Se         7.9349183219        7.1739847727        6.6018824498
 Se         5.0779216713        4.0650364286        8.2388539238
 Se         8.0857722109        6.3764754110       11.4829634845
 Se         9.9975292555        3.9980575428        8.9252441951
 Se        13.6345297188        5.2436858079        9.9326307306
 Se         4.9447112768       13.3198646418        9.3716087419
 Se         6.8030242929       11.5821315915        5.9023007657
 Se         5.2407442797        8.5207052808        9.0199365831
 Se         9.3199317651       10.5498048232       12.7958623989
 Se        10.9223445807       10.1872003061        4.8725107067
 Se        11.2248246187        8.6729387956        9.1375895766
 Se        12.2142245978        6.6112560778       13.6859536727
 Se         9.9270484694        7.6113330434       16.4453109172
 Se        13.3100114767        6.4039372192        5.9543405256
 Se        15.7715023895        8.3776605892       11.9322344539
 Se         9.6845048743       14.8260817021        3.7302943931
 Se         7.1595636527       16.1409053877        7.4472337048
 Se         9.0246484760       14.8576480480       11.5427826204
 Se        10.9990286517       11.0308741478        0.5296800150
 Se         9.8300108508       12.5497971056        8.5525912316
 Se        12.9169962112       12.0557179047       11.6492015294
 Se         7.3666860815       12.6463716178       15.6433366838
 Se        14.4348868147        9.4321221225        2.9481957307
 Se        14.2121443204       10.7790842380        7.5051515260
 Se        16.8311740867       13.2760501310       10.3950039799
 Se        12.4846271273       10.3779329453       16.1643017950
 Se        17.5156760369        7.4773027396        7.7894556568
 Se        10.3127181663       17.5360288529        8.7978509308
 Se        13.5340796557       16.1658601408       12.3127783997
 Se        14.0273939151       13.7208990173        3.6569028859
 Se        13.1657997134       15.2317707765        8.1805360982
 Se        17.0585544261       12.3252099844        4.8729461242
 Cd         5.9150374685        5.3728983817        6.1760169498
 Cd         9.4278762522        6.6167994858        9.0700233142
 Cd         3.4013159930        8.3492293501       11.0981115780
 Cd         7.8744764251        6.1666047732       16.3531145870
 Cd        12.3791100020        4.3851339160        7.6211317769
 Cd         7.4387883757        3.4676583655        8.9594264863
 Cd         4.8954933872       11.0611225965        7.9123796556
 Cd         6.4489904519       13.6909837866        7.3138334448
 Cd         6.5895459880        8.4245760846       11.3431674102
 Cd         9.5276866437        9.1780010802       18.6550772486
 Cd         9.0784184090        8.2357517669        4.4343564820
 Cd        12.4257375926        8.8533425606        6.7187440676
 Cd        10.0088875284        7.9615243760       13.2939131520
 Cd        13.6730989433        8.2475092783       15.0971552198
 Cd        15.1810428718        6.2579423056        7.9245442085
 Cd        13.2134055099        7.7261009966       11.1133483741
 Cd         9.3278149327       15.1661015863        8.7390498689
 Cd         8.9030579073       13.9431095110       14.0953088065
 Cd         6.5337466397       16.8473927735       15.3760800038
 Cd         8.0226364778       15.2498505811        1.7116084143
 Cd        12.6658668011       12.6272939706        8.5840054661
 Cd        10.6519016067       10.9680947363       10.5206450152
 Cd        11.6727473366       11.4035300447       13.9678338135
 Cd        11.9808000168        9.5011313056        2.4208739690
 Cd        14.5759168985       11.2080412955        4.9766773315
 Cd        14.7106609773       14.6566500716       10.3051318946
 Cd        16.5774146436       10.9115062040       11.6558269604
 Cd        17.9349464090        7.5610640579       10.3341882288
 Cd        11.9999168178       15.1723933307        2.6490662772
 Cd        11.8972577903       17.1108110666       10.6978188437
 Cd        14.6395561975       14.8087216404        6.0888316421
 Cd        11.5717633606       14.3907759674       12.3541664889
 Cd        19.0136274150       11.0717367675        5.7749171255
