417
 i =     9300, time =    18600.000, E =     -8967.2385310380
  O        14.5864326365        2.3762431266        8.4594160512
  O        15.9253924987        0.9736095210        4.8724919986
  O         9.8894657661       17.2718804846       16.8653366541
  O         6.1970677337       11.1011518942        0.4832167994
  O         2.8460025365        6.5149770471       10.4395360430
  O         2.2362645120        4.6155435727       12.2699753436
  O        16.9482984508        6.3804795596        1.9767057401
  O         5.0908634235       15.7056378012       14.3892094762
  O        15.5751382710       19.3540181856       15.6225723998
  O        12.8702462916        2.7881861052        6.0223787135
  O        11.7587403541        2.2936355650        0.8054191731
  O        13.3328709222       19.7732042377        4.8198393510
  O        12.0084096431        7.4279269831        1.1059784553
  O         5.0619187225       18.9781421514       -1.1854907946
  O         6.8498674529        4.0086503636        4.2712396777
  O         2.8526240727        1.9979372041        5.4464041488
  O        19.4738575250       16.1445935075        3.1704636892
  O        14.7263342006       19.6256729782       12.3788245828
  O        18.3162162069       21.2975517631        3.1138968120
  O         6.8381091809        5.1793341471       15.4453620007
  O         2.1029182863       17.7688479609       10.9171370486
  O        16.7652138991        2.9434989460        9.4570278483
  O        19.8761632494       11.6149485071        7.6958764776
  O         3.0054367554        2.9734110631        0.2375973752
  O         5.5765505520        9.5812107021       17.7020062818
  O        17.6787847799       13.5864062727        1.2845881033
  O         3.4100150638       10.5218012360        6.4350443664
  O        18.4738275569       19.9068067773        5.4449691668
  O         0.6626712242        8.6538823290       12.7039013004
  O        17.9299855765       12.7970533227       17.9809398817
  O        15.4579385910       16.8660479824       15.9708891736
  O         4.7286664933        6.4094296023        4.7782438122
  O        13.0010442101       19.8251209030        7.5279645746
  O         3.9750705175       19.6284179736       11.5079214612
  O         6.7838545998        8.5572807726        0.4969387539
  O         3.8657746404       19.4023522397        4.1957856559
  O         0.8229730055       11.3403836804       12.5635373933
  O         9.7150657644       18.7582890001        4.3238291593
  O        12.7088857810       19.8752473445        2.3353992556
  O        18.9138258629        6.7324671787       14.1511342923
  O        10.2273600728        6.4926089173        3.0405297774
  O         2.5057012449        6.7317562144        6.3032060151
  O         9.9011473438       19.9453168805        0.0614943925
  O         2.6848744885       19.0290403760        0.1897752524
  O         0.7728963820       14.7828767703        6.0264981408
  O        19.5498284743        8.1939914660       -0.6935828746
  O         3.4169707035        9.4513226867       16.4541157943
  O         3.0853350887        4.5089381060        4.8874910719
  O         2.6161134414       15.7930994753       13.6022072853
  O         3.3734703087       19.6973865497       16.2741964527
  O         1.8718334972       11.0954842340       14.9303475772
  O        17.5752198930        4.4118708802       16.0710235310
  O        18.9204259479        5.6277082080       -0.8733223710
  O         4.9075507310       13.5144355711       19.4438793932
  O         2.9776578871       17.1322255550       16.8333918231
  O         8.0740269838        5.0012002453       18.3978287694
  O        17.3597980179       17.6775988148        8.8620914926
  O         7.1241889487        6.6393137192        2.1510472759
  O        19.0571782177       17.4055206430        0.8186930291
  O         8.0387862233       18.5000360621       18.2375227121
  O        16.6163761916       11.3969976782       13.5425945051
  O        19.1181362264       17.1580030975        6.9566477247
  O        20.1054439080        3.3513642590        4.6922051947
  O        13.1880257504        2.4235139921       12.2949479783
  O         5.1805557926       18.6594618953        1.3479000161
  O         7.3989121412       16.0939698134       17.2798093845
  O         3.6158677094       18.0392504652       14.3463572588
  O         8.1031809160       10.1101838401       18.0655111564
  O        14.0038382891       14.7707585439       15.3851393954
  O         6.2776230303        1.5574508385       11.3365391005
  O        11.6819087035       16.1308332854       15.4517951795
  O        10.0562003726        3.3163594205       -0.8952824145
  O        15.6739474462       11.4228406303       18.4745851307
  O        19.2296067993        5.7142375352        3.4188255332
  O        10.3310731839        5.5201581104        0.5301027583
  O        19.8449467414       20.4504723496       13.0713252813
  O        18.4246820000       15.3265353813       18.6093928411
  O         5.8250418929        1.6043426219        5.0302961542
  O        14.0241328847        1.4082814419       17.0550786207
  O        16.3492976305       18.9329003100        0.5707309220
  O         7.8875105486        9.1932855384        2.9063549400
  O         6.5735999659       18.8873667367        3.6960192847
  O        16.7634687764        4.6497144220        3.9090824716
  O        18.8216190361       12.1471718051       14.8284600914
  O        11.9363699775       14.0276965762       16.8396002241
  O         4.9641493109       12.6932804962       16.9578614390
  O        20.1112378219        2.2554665138        1.2278125578
  O        13.0646890588       17.2818683105       -0.8432299468
  O         2.0004049397        4.0919465380        9.7083236222
  O        20.1447082771       10.6413180471        0.3924758321
  O         7.0563433699       18.5628934174       14.3279150531
  O         1.4488944557       13.5373905778       14.0801461253
  O         4.0891947066        4.8305166644       17.9690746773
  O         1.0682168759        8.4342481414       15.4054866857
  O         6.7611475787       16.6061894914        2.4178163914
  O        14.2634944354        5.4206816325       18.8036267626
  O         2.9317874287        3.8394888248       14.6583757313
  O        18.1410911353        2.8526107961       14.0532273949
  O        19.8919514765       15.2118764745        8.6552742884
  O         4.5047052563       17.7414414573        9.4866441510
  O         1.1558611179       18.4163949176       15.5036121669
  O        17.9374969186       10.1821195137       18.3855767730
  O        16.4715784220       14.3665061325       15.7240845044
  O         5.5858696802        3.5729579796        0.6508900571
  O        19.1870198164       17.7487324729       17.7369666658
  O        17.9735802276       18.1373131070       15.5070121699
  O         1.4911410359       16.0519878848       -0.5111290107
  O        10.3697020029        1.5050854671       14.2871857403
  O         4.5570715152       17.1176290602       12.1169086760
  O        18.2201569196        9.3634280147       14.5150313733
  O        20.3167498685       10.3107542059       17.1681397562
  O        15.2838751688       19.3438728033        9.2164572535
  O        18.7379813025        9.9022627801       10.7375603996
  O         7.6935868137        1.8959063596       14.4550667767
  O        16.2698233804       17.8100962169       13.6320789917
  O         4.1739647646        6.1737659965        0.8318219634
  O         3.8879989667        2.6881417704       12.2557549938
  O         8.1496107837        1.3447307427        9.4639037272
  O         3.4834885125       14.7034563400       17.6302685188
  O         5.9966569111       20.3844431062       16.2034926925
  O        14.9977735483       16.5881631273        0.8188113440
  O        16.8894417731       15.7293308176        6.9743733575
  O        10.6267102692        1.8502663374        3.2376740026
  O         2.2980552358       16.8034935039        6.9905663876
  O         3.8906228191        9.2754228019        4.0382652462
  O         3.3857960673       14.3993377320        3.2697888421
  O        13.0068767809       14.8823991162        0.4010536840
  O         2.0219078482        6.2284791036       18.3898118677
  O        12.4587838546       17.4868108442        3.4520617451
  O         3.1086535243        9.1785224941       -0.1744267526
  O         4.7720388084        5.1258273145       13.1703474738
  O         2.3066822171        1.5494329994        8.6668217955
  O        16.0897840265        4.5199905604       13.6626981456
  O         7.4568608147        1.6243670403       -0.0228146196
  O         9.2583514293       16.3113250060       -0.1596269011
  O         5.0647338465       12.3865592435        2.4956110350
  O        16.6881645028       18.3686697725        6.4929220161
  O         5.5159503712       18.7046588009        6.2956398791
  O        16.3910896496        3.8562173413        6.9095676046
  O        12.4274764687       19.7706089346       15.3605860789
  O         8.0306303372       18.7981659992        1.4907691927
  O        19.3750480182       15.7047186456       13.0215549624
  O        16.9030341186        1.3788588342        7.3435829187
  O        18.5998437056        2.6832568063       11.3732004292
  O         1.9959245657        4.5288734180        2.0680384077
  O         2.4287919514       12.4325060207        1.7341010283
  O         2.0246607769       10.1622238718       10.6291797543
  O         2.2707984513        6.7389592600        3.6330892381
  O        11.5996200731        1.3893881780       17.6512345354
  O         5.2015333776        1.0309876068       13.7610048554
  O         8.4055953712        3.6151323779        1.2891405600
  O        11.9192599113       13.7105929516       14.1026726549
  O         7.6094346198       -0.8725111692       10.7776742166
  O        19.3072986640        2.6455984835        8.8066674839
  O         4.2933006666        7.2865293600       17.6507954802
  O         6.6417626024        1.9489744157        2.4549964406
  O        10.5436103910       18.1710235882       14.4470846034
  O         4.6938059290        2.3201282356       17.7217235132
  O        12.0834006968       19.3776171138       12.7272865561
  O         8.9562345542       16.0452226323       14.5880991414
  O         3.0120519787        2.1274414882        2.7016050623
  O         4.0815405464       16.7113477254       -0.1243793532
  O        18.6013083839       18.8081256785        2.9548806439
  O         7.3134010740       13.3393428864        1.1411374469
  O        18.2914891095        4.1169748059        1.5173709431
  O        15.1185692586        1.9608343664        0.7606003620
  O         1.3203804730       19.9275028447        3.8649985530
  O        20.3559866086        6.7793237615        1.3622352317
  O         8.4918096836        1.9028114070        4.6932707070
  O         9.2710015700        3.6485536787       13.1588494071
  O        21.1984557158       14.1577435247       11.5813041151
  O        13.0149681862        3.1806099678        2.8858428937
  O        14.8844561771       18.5597167094        2.7932733605
  O         2.7470334602       12.2539231179       18.4559081695
  O        16.9598137506       16.8966820209        2.3105258142
  O        17.9768339229       19.9507815244        9.7429339475
  O        14.8506461494       15.2466545555       17.9053743339
  O         8.8426840714        1.0558957782       12.2288679931
  O        15.1299327811        7.1596534448       15.7967627366
  O        16.8944333484       11.2046632302       16.1202550720
  O        16.4411110590       20.5437315724       17.8165425746
  O         1.8624858685        3.6833903020        7.1615593954
  O        17.1356623117       20.2147376107       12.6605145065
  O        15.8528072369        2.6155607317       15.5787062996
  O        10.9349583918        1.1093299519        5.8565574804
  O        12.5648289796        3.2269134400       15.8168448198
  O        16.6176363312       18.1862483584       11.1136445810
  O        17.7950447136        1.6269552273        0.5091754326
  O         1.3406408946        9.9323034081        4.6289245850
  O        19.9565717039       13.3136691760        0.0915239961
  O         2.9927104540       11.8807373002        4.1265007161
  O         9.2374398143        7.8234715948        1.0122835075
  O        19.6331539454        5.8357474221       10.9051242718
  O        13.0589629561       20.2171338018       10.2452523187
  O        19.3197593543       20.2905731816       16.8276225023
 Na        20.0691897816       13.9815553565        2.8326881460
 Na        12.1746683040        5.0540960965        3.6825158802
 Na        15.1170174728        9.1620914720       17.0155905790
 Na         6.2251620246       16.6716845324       10.7262848522
 Na         4.5166744724        8.2991557886        6.1380815892
 Na        17.2416291519       14.6405761753       13.5496277754
 Na         1.8773613372        1.4730426778       11.1838930038
 Na        18.4569195344       13.6636115361        7.6071531975
 Na        17.6001367505       10.4137940377        8.6575198251
 Na         7.8839664951       17.3743206700        5.1604643120
 Na        10.7737282735        4.3054497645       14.9893316097
 Na         1.8383425853        9.9827066344        8.2129182625
 Na         6.4569282420        6.2900958488       -0.1603203480
 Na        10.2905584032       17.8966199989        2.2079439591
 Na        13.3378845289       17.8138514237       16.3493557710
 Na        10.0750067703        1.0356163574        8.1725262589
 Na         8.4970409046        5.1228323786        3.3449917451
 Na        18.7095483979       14.0812695930       16.1684650832
 Na        13.9274287591        3.6812884773       14.1779050258
 Na         6.0108954746       10.3107784103        3.6227706085
 Na        17.0530679835       11.4311806634        1.4591354455
 Na         0.7157398559       12.7036751308        9.8931683179
 Na         6.4545308058       18.8036807671        8.4981376699
 Na        13.9506847705        3.6423262348        0.4402476269
 Na        19.3694499282       16.3547734778       10.5347335966
 Na         4.4987582057       16.9221746442        7.3111187758
 Na        15.7019848014        6.8543529168        3.9759958941
 Na         5.7869270599        6.9871801475       14.0056852027
 Na        12.1822125727        6.2492202229       18.4624239093
 Na        19.8257921652       19.4988059549       -0.0451362451
 Na        13.2348111007       19.3873809297       19.4519906883
 Na        11.3354253954       17.4283800249        5.4449132367
 Na         2.8644833131        5.8299806278        8.1799436712
 Na         9.0254480762        9.9351109013        7.4596435804
 Na        10.9897024518       12.6666704432        5.2577976912
 Na         2.2015877949       12.9116946455        6.3413340112
 Na         3.6262005440       14.2049179988       15.2499158884
 Na         7.5428797929       12.3932184281       10.8351793427
 Na        16.8268977208        5.3417690774       -0.1387612338
 Na        20.5139889048       19.0026905854        7.6759382029
 Na        20.7624614265        5.4210310467       15.5374193504
 Na         4.8366691307       15.6484947758        1.8919104735
 Na        11.2091408400       15.4445542228       -0.9075449657
 Na         2.6147728901       15.3489285466        9.7631343922
 Na         1.5523824941        1.8910374988       14.8711458494
 Na        15.0697265250        1.6266973067        3.0192493166
 Na        18.6926492482        5.0268106806       12.8501913223
 Na        13.5959023789       12.8629223402       18.4802377068
 Na         5.1659186895        4.9822017007        2.7097326158
 Na        15.0361687425        3.5810319071        5.0363551888
 Na        16.0340622654       14.7601725758        2.0458257766
 Na        15.8890589338        6.8010811262       13.5894390412
 Na        14.8102423818        4.9857988743       16.6203841451
 Na        19.9533055433        7.7106647775        5.1999994298
 Na         4.7004211402        4.3344589603       15.8802424205
 Na        20.1802987872       17.8678477316       13.2694223348
 Na         3.3436570019       11.9202456637       11.7211152614
 Na        17.6734360304        6.5453180471       16.3390060438
 Na         6.9578603740        4.2385579063       13.3079298006
 Na        18.4520005404        2.8978853594       17.4551732440
 Na         4.1921574114        1.6448226078        7.4084142880
 Na         7.4252809846        3.1941704987       16.6966852894
 Na        11.0532491274        3.7327367570       11.5845618289
 Na         4.9183542913        5.4324124309       10.7915448647
 Na         6.8661529727       13.8587054708       17.7547552084
 Na         8.7965951690       17.7491264698       12.5484838003
 Na         5.2048838902       10.8557012133       15.6519695161
 Na        10.4161515971       12.4933625423       16.5477571766
 Na        14.7733139199        6.9843175962        0.9666107727
 Na         8.9341021307        9.8319823056       15.3877387215
 Na         4.5856761975        7.5799810821        2.5886995744
 Na         2.0375937576        9.0818987921        1.9370400041
 Na        18.1933699566       15.2141031194        4.9696581617
 Na         8.9437568131       11.2758336338        2.1474500074
 Na        14.9323949083       12.6251388266       14.6175230869
 Na        15.3242535394        3.3165744044       11.4444509460
 Na         1.9973711184       16.2456517062        4.6256194289
 Na        18.3645157380        4.1936381322        5.7352832613
 Si        16.1993381141       18.9679197174       12.4934969333
 Si         8.6046311804       16.9567765913       17.9176872532
 Si        18.5012716427        1.7915563045       12.8473948742
 Si        10.5552315542        6.9168356538        1.5509596771
 Si        10.7526279028        1.8682291858       -0.4117142111
 Si         3.1567811043        6.1438599078        4.9718515535
 Si        19.9734098167        6.6307504165       -0.2712934375
 Si         7.7699836031        8.0514242784        1.7307208172
 Si         2.7879282294       18.2852863383       15.7329746762
 Si         3.5982262240        6.2764846703       -0.6598144401
 Si        19.1974910247       18.7737014601       16.4232888291
 Si        16.9136655005       19.8765756637        5.8973196576
 Si        17.0160052436       11.4107890951       17.7400989259
 Si        18.5436355950        2.5371753079        1.6588204030
 Si        20.3057328880       15.9811023158        7.2027122437
 Si        19.3574965776       16.6343880378       -0.5004701923
 Si         9.2091081938        4.4492739399       -0.0090379828
 Si        19.4155633498        8.2195079523       14.1445379436
 Si         4.1212015664       18.4692163838        0.1416315627
 Si        15.3037485034       15.1983936751       16.3258067231
 Si        15.7790500643       17.7903469613        1.6447317660
 Si        17.6219736941       10.9341524033       14.6690835920
 Si         4.0833515089       16.6264977622       13.5519851501
 Si        20.6554992782        5.8246276665        2.6637557814
 Si        16.1057875923        2.6785777464        7.9372141647
 Si         6.9932676602        2.7647217006        1.0858119383
 Si         1.7734354620        5.3632643182       10.8796471899
 Si        12.5524161020        1.2214969498        6.0789077888
 Si        18.1622154726        2.2269790716        9.8243562440
 Si        19.5194902976        9.7609686199       18.5127262994
 Si         9.8561457377        0.9838226408        4.5422879786
 Si        13.9428430738       16.0165602327       -0.3125270936
 Si         1.8892310033        9.7917450115       16.0270886862
 Si         7.7262797637        0.6999938455       10.9459795481
 Si        16.7715580860       18.9245417505        9.6617218254
 Si        20.1240251939        9.9555406330       11.6053790257
 Si        13.9555409111       20.2798478728        8.8233844342
 Si         2.9394342930       10.3174033159        4.8566713961
 Si         4.3612982326        3.4560925684       -0.4772325838
 Si        16.3347037447       18.0655443919       15.2331518694
 Si         5.9166920968       12.5819343381        1.0267550619
 Si        15.5037664069       20.6884653555       16.4841433827
 Si         4.8473736843        1.3806887242       12.1715604229
 Si         2.9965805986       16.1659243283       18.1898271296
 Si         2.7703120638        1.2469569882        4.0006366758
 Si        12.5862842830        1.7571222389       16.3822303470
 Si        10.2086010209       16.8155538253       15.3238806312
 Si        17.4830489631       17.2154322062        7.2871174413
 Si        18.4177603269       13.7738079013       -0.1312997506
 Si         9.0307317229        2.1233056128       13.4508356431
 Si        17.7064588846        5.2041252486        2.7660509226
 Si         6.5190911581       20.0382367130       14.6602703381
 Si        11.3143666622       19.5386055151       14.1705523961
 Si         6.9380330348        2.3950527267        4.1393062879
 Si         3.6839533266       18.0266204217       10.9236174248
 Si         8.2640309842       19.5223999047        0.0360598910
 Si        13.2608685780       20.3124363445       11.9271857121
 Si         5.4492082388       19.4087739573        4.8016713708
 Si         0.8729606955       12.0532683692       14.0083094814
 Si         1.4098129169       14.8824020487       12.9321764670
 Si         3.4998517044       12.8275378260        3.0048239075
 Si        13.3228010180       18.8015644498        3.4654487121
 Si        16.9274496232        3.7507031504       14.8370865399
 Si         4.7046722571       20.1360854836       17.1092650760
 Si         1.5740199018        2.9688513498        8.5958777674
 Si         4.0366139380        8.8952594103       17.8952496719
 Si         6.5769298956       18.2166444322        2.2088506875
 Si         2.1526504749        2.9789797655        1.5635499975
 Si         1.6532367873       12.0831516795        0.3015012818
 Si        16.2642954610        1.0881603938        0.1129511168
 Si        18.6171899502       17.2157189637        2.4007361218
 Si        12.3412923203       14.6076992281       15.4392298802
 Si         3.4717501428        4.1513992022       13.2212775702
 Si         6.7241037336        9.8831213148       -0.5438589143
 Si         2.0111709796        3.4274422183        5.5468760788
 Si        12.0454243332        1.9838508818        2.4228125503
 Si        19.0982788414       20.0580713360        3.8886124340
 Si         4.0185877665       13.1710795788       18.0953058001
 Se         5.1572941209        9.3663151620       12.9317024737
 Se         8.0280344878        7.2468185219        6.5147292344
 Se         5.4075843201        4.0572968993        8.3245027892
 Se         8.1714796217        6.3186584876       11.3404838894
 Se        10.3999614115        4.0665248938        8.8032284228
 Se        14.1390724451        5.3101045008        9.7648844551
 Se         4.8804005667       13.2104508715        9.3290543210
 Se         7.0806536769       11.2370323413        6.0430161254
 Se         5.1529996704        8.4584874706        8.9238332686
 Se         9.5643728315       10.3443445788       12.5382971867
 Se        11.1333783743        9.9894745078        4.6579599461
 Se        11.4068012367        8.3582248966        9.1398101529
 Se        12.4691552444        6.4174380720       13.0371237162
 Se        10.4629882882        7.7028454965       16.4412369979
 Se        13.5220824349        6.2053643621        5.8468392231
 Se        16.0171382828        8.3245236850       11.0354522868
 Se        10.0303600876       14.9245770868        3.6239445760
 Se         7.4765327298       15.9375969761        7.4842814369
 Se         9.2839268270       14.7631872091       11.3818136292
 Se        11.1777053972       11.2644027477        0.5014958160
 Se        10.2956994740       12.5299269327        8.1196870767
 Se        13.0653777197       12.1108729876       11.1765746155
 Se         7.9347885766       12.3276661681       15.5008405305
 Se        15.0077269840        9.3158461048        2.8636245520
 Se        14.6275561851       10.5531981907        7.2233112979
 Se        17.2793128027       13.1716998740       10.3875857314
 Se        12.8198780227       10.6283892240       15.8867974731
 Se        18.2181792056        7.2293954149        7.3339100341
 Se        10.6554872269       17.6475423696        8.1097713715
 Se        13.7926372859       16.2434695808       11.9318849957
 Se        14.0541442862       13.8777417559        4.0490094886
 Se        13.5043556860       15.0698588813        8.0134851883
 Se        17.5226615831       12.5106102094        4.3848470098
 Cd         6.1168657558        5.2693666431        6.0594348135
 Cd         9.1996843827        6.3283809225        8.7527986115
 Cd         3.4251486140        8.5045749290       10.9789458499
 Cd         8.3609422847        6.1347241068       16.4845652242
 Cd        12.8663307597        4.2865934717        7.6980625981
 Cd         7.8330924869        3.4644197558        8.9626697399
 Cd         5.0758787586       11.0849430553        7.8428748419
 Cd         6.7063294281       13.4689886066        7.1651207571
 Cd         6.7996417128        8.5879421102       10.9549194825
 Cd        10.1415955512        9.2359370813       18.6182437304
 Cd         9.2796976507        8.2037565861        4.5446027743
 Cd        12.6732041142        8.7240941350        6.5568504408
 Cd        10.2589147815        7.7131613653       12.4406569045
 Cd        13.3868957789        7.9690390341       14.9398011527
 Cd        15.7923421436        6.0564849662        7.7566069018
 Cd        13.5899309802        7.8061813203       10.5398983650
 Cd         9.6108261727       15.2137522187        8.7434156040
 Cd         9.0078860792       14.0105771593       13.9129452320
 Cd         6.7508567184       16.6292751486       15.3308281075
 Cd         8.2595634119       15.1803937132        1.6252184986
 Cd        13.1304680935       12.5388596492        8.0408611549
 Cd        11.0198562377       10.7704454978       10.2025363373
 Cd        11.7812012944       11.4678662116       13.5504367760
 Cd        12.4742748289        9.5945225893        2.2153319712
 Cd        15.1785684056       11.3411273695        4.7331038689
 Cd        15.1669339860       14.7586418734       10.1291356818
 Cd        16.4873315861       10.8454496267       11.3385954207
 Cd        18.2968977842        7.4666656368       10.0506000939
 Cd        12.3117656915       15.2385324557        2.6007218377
 Cd        12.5784266991       17.2361568027        9.6766870067
 Cd        15.1255168198       15.3500812977        5.9455192805
 Cd        11.8595929052       14.5360420443       11.8128622883
 Cd        19.2811649603       11.2731107199        5.7899838681
