417
 i =     5600, time =    11200.000, E =     -8967.2304600271
  O        14.1979876436        2.3412214150        9.0862859582
  O        15.5262067787        1.3768497188        5.2905788804
  O         9.4931855402       17.1941346272       17.1481237405
  O         5.6930156793       11.0400341443        0.6595021933
  O         2.5082230259        6.3904199425       10.6145508734
  O         1.5182005864        4.8958095035       12.6496756440
  O        16.2344661250        6.3894644063        2.4499237477
  O         4.7598799558       16.1853954099       14.2912749001
  O        15.0766349498       19.3145886380       16.3804689117
  O        12.7716743588        2.8336726445        6.1847265967
  O        11.4843815016        2.3366746634        0.9918790467
  O        12.9520163529       19.7153279731        4.9680938558
  O        11.6185710346        7.6109051661        1.5932297945
  O         4.7456526864       19.1278427841       -0.8552990914
  O         6.5056984525        4.0633069670        4.4338207472
  O         2.3914317991        2.1388947940        5.7302844318
  O        18.9551150663       15.8997591604        3.3738410342
  O        14.2168478100       20.3928130727       12.6721413169
  O        18.0479614492       21.1230433941        3.3857969497
  O         6.2793361657        5.3692801196       15.7512314933
  O         1.5649654087       18.1300999473       10.8568583457
  O        16.5281073374        3.0641115967        9.9158500494
  O        19.3349226620       11.7308654243        7.9646284515
  O         2.6518947396        3.1133615779        0.6402997594
  O         5.2793763990        9.4441476584       17.8152744755
  O        17.2159264618       13.7304961181        1.3653394323
  O         2.8404985281       10.9007317798        6.6581045211
  O        17.9839333379       19.9311709939        5.7171070246
  O         0.3231366763        8.6786724776       12.7071875369
  O        17.5215019195       12.8441128983       18.0701712936
  O        15.0652843342       16.7700088126       15.9268573158
  O         4.3340148391        6.5130481542        4.8712585838
  O        12.6406633930       19.9553229959        7.7030060475
  O         3.4846795695       19.7182081547       11.8706727807
  O         6.6458903627        8.6577931725        0.4935038676
  O         3.6450376151       19.6451514539        4.3530353799
  O         0.2988403531       11.3895705477       12.5974566799
  O         9.2868465533       18.9803856307        4.4946416642
  O        12.2439861516       19.8152981065        2.4588248165
  O        18.5980643668        6.8444060360       14.4327974557
  O         9.9874485258        6.5953410305        3.3987479030
  O         2.3329010124        7.3797228542        6.5250762340
  O         9.4417806021       20.1088695672        0.3627349238
  O         2.3751222017       19.3218773533        0.3588429736
  O         0.4652578102       14.8335274593        6.1800762368
  O        19.1541471306        8.1430361852       -0.5311694611
  O         2.9656742006        9.4016641577       16.6379090488
  O         2.3669827242        4.8695932470        5.6731379820
  O         2.1700782939       15.7356315532       13.6871741877
  O         2.9160213331       19.7377270227       16.5304840240
  O         1.5516769449       11.0874614615       15.1380994954
  O        16.9645225713        4.3632649661       16.2673323834
  O        18.4558317079        5.6281507844       -0.4923887540
  O         4.8832710079       13.5457199185       19.2867711049
  O         2.7416208195       16.9076396030       16.7017467221
  O         7.8062360879        5.2451271207       18.5052179753
  O        16.7876493247       17.5449906324        9.0674176331
  O         6.7460193879        6.9231345150        2.5451983102
  O        18.7554401359       17.4322118518        1.1240287570
  O         7.7785643004       18.4859519324       18.5565834133
  O        16.1601238413       11.3588936965       13.7515557034
  O        18.6257508496       17.0224505947        7.2221470114
  O        19.5909357671        3.3396697717        5.1536869791
  O        12.4209875993        2.7682386202       12.3208416554
  O         4.7457575529       18.6738518941        1.6936452271
  O         6.9820493481       16.2930202850       17.4888042656
  O         2.9929399724       18.1156943901       14.4265184644
  O         7.6816719346       10.4630995064       18.1981121419
  O        13.4545937277       14.6321675979       15.6561270499
  O         5.7072947409        1.8731972363       11.5504483466
  O        11.2542269156       16.0407248596       15.5689997952
  O         9.4662042328        3.3267899840       -0.5308348143
  O        15.2361193486       11.6090334052       18.5472440446
  O        18.6803432996        5.9235959656        3.5886613522
  O         9.9509768582        5.6601155964        0.8046896399
  O        19.5114786884       20.3645382955       13.4649800352
  O        18.0257908039       15.3609804407       18.6739784694
  O         5.6886669952        1.7130610905        5.1671004549
  O        13.5672159461        1.7679301349       17.4312983613
  O        15.9300806705       18.9199242800        0.7042475451
  O         7.4307178134        9.5978511883        2.8968508975
  O         6.1179819488       18.7715829059        4.0532477257
  O        16.5702558429        4.7444550327        4.4270776368
  O        18.4801841612       12.0117436220       14.9149030920
  O        11.5031647264       13.8718863880       17.2158060917
  O         3.9732701496       12.9122379180       16.7604016232
  O        19.6672831848        2.4712741190        1.4720122475
  O        12.7988897623       17.3159458848       -0.9138621332
  O         1.4366265593        4.0696936622       10.1032316791
  O        19.9715422735       10.6353992980        0.5100636407
  O         6.7830909888       18.8914503400       14.5570158596
  O         1.1276642096       13.4404187538       14.0956729650
  O         3.8527177969        4.7130793771       18.2806480533
  O         1.0213295381        8.4759628163       15.1735744334
  O         6.4621680926       16.7749632332        2.3300360146
  O        14.0706672800        5.5525037230       19.1486395439
  O         2.3364039372        3.9240927942       14.9389140688
  O        17.8314149330        2.9184813371       14.2845041887
  O        19.7560986856       15.0590272327        8.8734069803
  O         4.1094819357       18.1298047349        9.6532069506
  O         0.7679539639       18.2274199524       15.7898476252
  O        17.6888695613       10.4319136512       18.8511893144
  O        16.0529571918       14.2249493011       15.7480908735
  O         5.4064053160        3.5740471573        0.7100695689
  O        18.3580587708       17.9006634538       17.8619477549
  O        17.4273090042       18.2427205749       15.5780927439
  O         1.0103214360       16.5403050893       -0.7035414623
  O         9.7639536013        1.4887451058       14.3736508537
  O         3.7995882899       17.1385982393       12.0324101668
  O        17.9052983384        9.3902236085       14.6377511155
  O        19.7917809574       10.0621712476       17.2111926033
  O        14.7063928006       19.1066273350        9.1167103959
  O        18.3479262041       10.0181373125       10.7394935627
  O         7.2207146037        2.1953737361       14.6226855218
  O        15.2167075376       18.2455076919       13.9915505506
  O         3.7244742132        6.2179488757        1.0734109977
  O         3.2248391546        2.8367099728       12.4327016952
  O         7.6829605672        1.3057659803        9.6894371185
  O         2.7609851007       14.7754761462       18.3202214357
  O         5.5541467128       20.6426682022       16.4528999236
  O        14.5244749663       16.6711599621        1.0895362425
  O        16.3444839339       15.6329181263        7.0520122339
  O        10.4261699321        1.9968560947        3.4769770535
  O         1.9267400094       16.8043105602        7.5763312520
  O         3.5896096875        9.7763144443        4.1483680394
  O         2.6954148668       14.5692853262        3.0642521734
  O        12.6445916714       15.0397910395        0.5187299333
  O         1.6461666569        6.2121211937       18.4571710177
  O        12.3014730892       17.4217760737        3.8875056658
  O         3.1244780470        9.1323970009        0.0925691251
  O         4.1336901260        5.1599172509       13.4676636879
  O         2.0739917679        1.6228416203        9.3723059691
  O        15.6398810246        4.2395585447       13.7625976323
  O         7.0744546678        1.6421092432        0.0258177174
  O         8.9001711707       16.0609758095        0.0291034899
  O         4.4102489549       12.6031043108        2.3195436973
  O        16.1728565632       18.3654670358        6.7006590472
  O         4.9514060884       19.0933656272        6.6749034673
  O        15.7257043666        4.0679468194        7.4857181481
  O        12.1269898262       20.2266395821       15.4219994166
  O         7.5017163812       19.0331391325        1.7303522023
  O        19.0476933843       15.3029365600       12.6740600115
  O        16.4350659319        1.5286590938        7.7043897889
  O        18.2075766221        2.5212217421       11.7441485687
  O         1.4450099064        4.5960496971        2.5382916689
  O         1.6995149215       12.2207147830        2.1232027421
  O         1.6740432014        9.9370979895       10.7692261580
  O         1.7827748323        6.7879353488        3.8585400898
  O        11.1553543940        1.4687701564       17.8802379152
  O         4.7986120599        1.3014236623       13.9296270718
  O         7.9725416649        3.9303716981        1.4840793229
  O        11.3809015866       13.5663946652       14.4787081602
  O         6.8063694485       -0.6585417764       11.2187079623
  O        18.9640837814        2.3577946263        9.3384460438
  O         3.9934680576        7.2350247986       17.8862631705
  O         6.5778632219        2.1234634928        2.6932772636
  O        10.3809875120       18.2943938236       14.7534769006
  O         3.9961319592        2.2835050291       17.9501853441
  O        11.7593467300       19.5789501884       12.9108607870
  O         8.5766374990       16.3840784538       14.8301860312
  O         2.5174048351        2.3231885344        3.0738829211
  O         3.5310874275       17.0487318568        0.0092954530
  O        18.2971086362       18.4669363714        3.5645457661
  O         6.8913127621       13.2049218629        1.6332327358
  O        17.4135641962        4.0199675878        2.0541342125
  O        14.7568209963        1.8734181121        1.0409323254
  O         0.9616131103       19.9067359806        4.0966735198
  O        19.9759558522        6.9327096331        1.5774678651
  O         8.3074383779        2.1772089498        5.0208923513
  O         8.8551185539        3.7642653903       13.3437761258
  O        21.1860020894       14.0519827179       11.5532639623
  O        12.8787007073        3.0764524336        3.0966855001
  O        14.5838611684       18.7570555965        2.9149003972
  O         2.6701191269       12.2695766312       19.0761567845
  O        16.5819131255       16.8715897121        2.5490961927
  O        17.1734636401       19.8830919505       10.2183492190
  O        14.5031968038       15.1659387543       18.0836154280
  O         8.2576890506        1.2468403448       12.2704645525
  O        14.9973211486        7.3620888471       16.1561143821
  O        16.6254372424       10.9359921419       16.3558433822
  O        16.0069376828       21.0553803733       18.1818251040
  O         1.1899965732        3.6162895808        7.6320546600
  O        16.8106439796       20.0958873894       13.0288768715
  O        15.4154348323        2.4012419601       15.5808030915
  O        10.6819939228        1.2177924712        6.0540230832
  O        12.0417427568        3.4993724889       16.1182758616
  O        15.5915175564       18.3460325577       11.4527278057
  O        17.5199661643        1.7029836135        0.7665127999
  O         1.1042914506       10.1474976691        4.8216835480
  O        19.5326935562       13.2538376589        0.3661820184
  O         2.7932993406       12.3663874008        4.5713882594
  O         9.0093464524        8.0470530631        1.4721419058
  O        19.0398821126        5.9782103325       10.9840729145
  O        12.6109434653       20.0613433714       10.4159912076
  O        19.0484282863       20.2737690711       16.9391357542
 Na        19.4587322105       13.7984027375        3.0197036461
 Na        11.4639907026        4.6150710678        4.1117214240
 Na        14.7703209651        8.9895230058       17.7416062936
 Na         5.9442990127       16.7299641412       11.1009373209
 Na         4.3766847376        8.6969207548        6.1662062279
 Na        17.1486146822       14.1360858835       13.0629230462
 Na         1.4991315814        1.2798294038       11.5776234899
 Na        17.8086298529       13.7959557664        7.6096106336
 Na        17.3126029430       10.7955597247        8.9628963755
 Na         7.7257808863       17.3906826594        5.1907582194
 Na        10.3871581217        4.8780853518       15.1577234043
 Na         1.0727086727        9.8407656636        8.3584130087
 Na         5.9698052243        6.3024475404        0.1504516933
 Na         9.7389466675       18.3063667617        2.4412342033
 Na        12.8220999865       17.6085272234       16.0848288470
 Na        10.0417670100        0.9729341804        8.9689589813
 Na         8.0533600421        5.3109186747        3.3252491662
 Na        18.1209351472       13.9517305237       16.1176997223
 Na        13.3750270911        3.5870277211       14.1996802238
 Na         5.5030434901       10.5981618629        3.4676016719
 Na        16.2813799323       11.5206490887        1.6843748945
 Na         0.2780976937       12.9241785940       10.0780039111
 Na         6.3886879029       18.9011259295        8.5891395551
 Na        13.7274363446        3.7683430779        0.9453639183
 Na        18.8586348348       16.4523583722       10.4233843207
 Na         4.1011904059       17.0934882424        7.6064666143
 Na        15.4829875701        7.2690724133        4.4607067404
 Na         4.6926671734        7.0989819324       14.7925987281
 Na        12.0940574741        6.3621774195       18.8618810221
 Na        19.7013995262       19.8559070797       -0.0234164468
 Na        12.9798026150       19.6362046846       19.2825975482
 Na        11.5447037603       17.4187236739        5.9940001991
 Na         2.6113496288        5.8690271358        8.3284518753
 Na         8.4287550105       10.2209923217        7.5536498409
 Na        10.8981048003       13.0424212924        5.6320562204
 Na         1.6925161027       13.1189361924        7.0782865558
 Na         3.2075577739       14.3544746114       15.2740949930
 Na         7.5386945689       12.3808739419       10.8436536782
 Na        16.4094284751        5.4684489735        0.1916185249
 Na        20.4641101678       18.7776448254        8.8019070718
 Na        20.5309714177        5.8272261657       15.3338627800
 Na         4.1143057238       15.6863225043        2.0292408967
 Na        10.8604932535       15.4656238400       -0.8813206755
 Na         2.4119530202       15.6913545741        9.9608814842
 Na         1.0884170410        1.9829093141       15.1804013248
 Na        15.1256981399        1.7254665376        3.2778377170
 Na        18.1082776557        4.6976217213       12.6354310698
 Na        13.2573195994       12.9884505814       18.8685895938
 Na         4.4575058181        4.9585688693        2.9536998328
 Na        14.8113237687        3.6426791716        5.2207846038
 Na        15.5536465388       14.7435995207        1.9802690398
 Na        16.1089425897        6.8758843669       14.1038775444
 Na        14.5795148814        5.3352995668       17.1015769864
 Na        19.7067535240        7.9957554491        5.5254660302
 Na         4.2628911406        4.1769851659       16.0727261873
 Na        19.9072133749       17.9561935755       13.1747902562
 Na         2.8698442571       11.9928335058       11.3135114130
 Na        17.5150996783        6.3636795183       16.7391860080
 Na         6.7977329729        4.6308519329       13.6110325092
 Na        18.2390493126        3.2996528778       17.9267287297
 Na         3.7239288175        1.3896282955        7.8886303066
 Na         7.5242194364        2.9945230572       16.7404912909
 Na        10.4672701941        4.4878710196       11.4554446404
 Na         4.7732113809        5.4383464491       10.8336780890
 Na         6.6464408147       14.1020118135       17.8849792992
 Na         8.4816141623       18.0307940734       12.6952889591
 Na         4.5668523183       11.1757773103       15.8191323733
 Na        10.0884773257       12.2414790897       17.1837571937
 Na        14.1130512982        7.0743104018        1.5784402781
 Na         8.1308446717        9.9885619932       15.8566520994
 Na         4.3428439492        7.8521290055        2.6797098468
 Na         1.5917259737        9.7556379603        2.5556891282
 Na        17.9512629587       15.6709582901        5.2360760693
 Na         8.5480155888       11.7570887342        2.4349490841
 Na        14.6824567711       12.2648541688       15.2667534929
 Na        14.6804973182        3.5235233817       11.4996986451
 Na         1.4757642204       16.1898281142        4.5771264497
 Na        17.7534140564        3.8480438950        6.3389817114
 Si        15.4670047549       19.2665924341       12.7700716411
 Si         8.1901674782       16.9045434109       18.1875524113
 Si        18.1181099131        1.7058929230       13.2135303916
 Si        10.1811703656        6.9245466920        1.8402283522
 Si        10.3387501170        1.9866587155       -0.1462939782
 Si         2.7560231259        6.4361983203        5.2442169218
 Si        19.6507268609        6.5868414096       -0.0528590161
 Si         7.3772455185        8.2859102506        1.9846157137
 Si         2.3907644090       18.2839152847       15.9178356316
 Si         3.2235854429        6.2270940928       -0.4811598167
 Si        18.7390940225       18.8406593234       16.4774556059
 Si        16.3927971401       19.9775422101        6.2959035539
 Si        16.6657434952       11.4218863590       17.9503423147
 Si        18.1138230990        2.5731235499        2.0396016036
 Si        20.0083510298       15.8868060865        7.4349949188
 Si        18.8475371899       16.7866105187       -0.4192326339
 Si         8.8199375427        4.6499531003        0.1594574454
 Si        19.1157335688        8.3060246095       14.1680434947
 Si         3.7615327189       18.6382120844        0.3598539606
 Si        14.8859365214       15.1318658380       16.4380766829
 Si        15.4065943281       17.7965777875        1.8418090139
 Si        17.2668246425       10.9355460933       14.8443009133
 Si         3.5019968097       16.7456954278       13.5782966063
 Si        20.1125494428        6.0132184250        2.8959254678
 Si        15.6967251296        2.8082313308        8.4262957081
 Si         6.8209286162        2.7581206448        1.2458221711
 Si         1.2122892316        5.4524726850       11.0592473140
 Si        12.3286810158        1.2920435576        6.1224811835
 Si        17.7044167460        2.1012288350       10.2956061603
 Si        19.1688311357        9.7462810882       18.6554612371
 Si         9.6029786007        1.1429523586        4.7487620877
 Si        13.5976982993       16.1031166407       -0.2136908756
 Si         1.4989005378        9.7549894909       16.0496751112
 Si         7.0851948071        0.8853345153       11.1880663066
 Si        16.0671031578       18.7935867203        9.9182348991
 Si        19.6511607813       10.0269320429       11.6344983487
 Si        13.4964545490       20.2553975268        9.0558535731
 Si         2.6592401657       10.7125058897        5.0657590497
 Si         3.9934860671        3.3347553350       -0.2038322812
 Si        15.8242822638       18.1493914472       15.5100737069
 Si         5.4959969331       12.6061096959        1.1612616148
 Si        15.0898120979       20.8660113908       16.8819346239
 Si         4.3360452831        1.6404120658       12.4183728142
 Si         2.5711062303       16.3645710060       18.3025185964
 Si         2.3897082317        1.3070212944        4.3402743056
 Si        12.0854572361        2.0020607127       16.6114051771
 Si         9.9195694836       16.9296390411       15.6345241552
 Si        16.9876063702       17.1152344580        7.4978825807
 Si        17.9526278934       13.7914216614        0.0224271840
 Si         8.5423423106        2.2542081283       13.5361663372
 Si        17.1380521218        5.3411939412        3.1495126946
 Si         6.1863515389       20.2903632077       14.8564460446
 Si        10.9551126173       19.7706348104       14.3773123691
 Si         6.8202920603        2.5392885426        4.3027418245
 Si         3.2319320372       18.2936656873       10.9640199257
 Si         7.8830812959       19.6232857284        0.3105410081
 Si        12.6921190993       20.5712606117       12.0190061544
 Si         5.0546345429       19.6473976483        5.1885001355
 Si         0.5791774184       11.9241401802       14.1044722042
 Si         1.1342277433       14.7207813430       12.8343988813
 Si         2.9822464212       12.9949750987        3.0363297218
 Si        13.0045194640       18.7969677828        3.5688097218
 Si        16.4001087012        3.6006167360       14.9690154796
 Si         4.2716460292       20.2056944932       17.3645729230
 Si         1.1203341777        2.9104636562        9.1010850575
 Si         3.7282642695        8.8681516441       18.0732948958
 Si         6.1455517416       18.3159106078        2.4315624454
 Si         1.7073149706        3.1388595944        1.9866399275
 Si         1.2672709552       12.1386381875        0.5610625789
 Si        16.0052527958        1.1632484086        0.4159212135
 Si        18.2560544237       17.1099861877        2.6368726371
 Si        11.8610671029       14.4193267232       15.7795032329
 Si         2.8692986587        4.1866351286       13.4534160163
 Si         6.3649016149        9.9668515329       -0.4400382221
 Si         1.4684630051        3.5208763620        6.0221872070
 Si        11.8211075321        2.0312907301        2.6005217418
 Si        18.6713879998       19.8410709955        4.2928934118
 Si         3.5761880735       13.3205536992       18.2391314205
 Se         4.6119187799        9.7770591004       13.3422925137
 Se         7.4850865241        7.5535100491        6.5518762957
 Se         5.0450360292        4.0940704168        8.3254078141
 Se         7.6579093560        6.7178439898       11.5381301895
 Se         9.7715865674        4.2176578072        8.2905816042
 Se        13.5685379646        5.3492275649        9.6867210724
 Se         4.7071738995       13.4726564042        9.8047526283
 Se         6.4392119644       11.5928528168        6.1462517483
 Se         5.2892133984        8.7638332945        9.3748923881
 Se         9.0586237418       10.5315467717       12.5703474015
 Se        10.9329115909       10.1754226509        5.1195841017
 Se        10.7933232955        8.6474420992        9.0993871861
 Se        11.7222165933        6.7950195230       13.2706799651
 Se        10.0204036491        7.7013598733       16.6121246610
 Se        13.0070314447        6.4602955325        5.8369263965
 Se        15.3141397263        8.2473774070       11.4587261723
 Se         9.5266231662       14.9480118257        3.8824157696
 Se         6.9674687805       16.2283521289        7.9435744584
 Se         8.7715563040       14.9068134880       11.5706758941
 Se        11.0334105987       11.4447720516        0.5640419317
 Se         9.7663353655       12.6655298066        8.3622314531
 Se        12.9941767093       11.8314393774       11.5684396246
 Se         7.4414656177       12.6569309224       15.7953411998
 Se        14.6755606312        9.6833352646        3.0654614279
 Se        14.1058540149       10.8131335010        7.5348868065
 Se        16.6869379054       13.1545736785       10.5032023885
 Se        12.4681735931       10.4421185108       16.1769742214
 Se        17.4949305273        8.0627370023        7.7217431029
 Se        10.4666209419       17.6693530512        8.7909162436
 Se        13.1783171236       15.9241112243       12.5073450880
 Se        13.5421916752       13.6800157602        4.0096133111
 Se        13.3763526854       15.0032505243        8.2673329143
 Se        17.0253400156       12.8066146311        4.9257272605
 Cd         5.8660011216        5.4657019355        6.0581653495
 Cd         8.6967508735        6.8300711050        8.7936632624
 Cd         3.2447532890        8.3761235648       11.3254694100
 Cd         7.7766614863        6.4802301881       16.5549084022
 Cd        12.1702944747        4.6643452625        7.4248426592
 Cd         7.4197593138        3.3466685629        8.8357731980
 Cd         4.7102325275       11.2132869780        8.0214249410
 Cd         6.2624861146       13.7868868131        7.6276265855
 Cd         6.4952439195        9.0452485298       11.7555167483
 Cd         9.6283241884        9.4268534029       18.8785537969
 Cd         8.9489418300        8.4701166389        4.5317993231
 Cd        12.4036159827        8.7648429323        6.8966382796
 Cd         9.6466842620        7.9608601496       12.7164391192
 Cd        13.2110201900        8.0696537230       15.1866125762
 Cd        15.4310395623        6.3144723873        8.1587008746
 Cd        12.7756179511        7.5845776270       10.6478695575
 Cd         9.3112434421       15.3256508583        8.7330019044
 Cd         8.3784689959       14.2808638513       14.1449480920
 Cd         6.3102486506       16.9626455995       15.5280295424
 Cd         7.9195297945       15.1097439526        1.8410248536
 Cd        12.5110842571       12.6140627390        8.4077776190
 Cd        10.8847179858       10.7886086171       10.5024902020
 Cd        11.5438142455       11.2543056381       13.8638329665
 Cd        12.0246707217        9.8630708776        2.4192264380
 Cd        14.8161089935       11.4215067989        4.9145757164
 Cd        14.5504187147       14.5381039328       10.6116393463
 Cd        15.6835709101       10.8684752956       11.6375814980
 Cd        17.5480909160        7.6870768814       10.3483746931
 Cd        11.8445234740       15.2382427651        2.7201024753
 Cd        12.1709350066       16.9337999081       10.3926766457
 Cd        14.7030141358       14.6199794781        6.0553083376
 Cd        11.1794434483       14.3290874865       12.2602785670
 Cd        19.0509148910       11.3724318464        5.8911095811
