417
 i =     7100, time =    14200.000, E =     -8967.2634568202
  O        14.3394127331        1.9982434889        8.9077088305
  O        15.7958622918        0.9177917680        5.1150859708
  O         9.7958581404       17.1595966338       17.1761971556
  O         6.2520308329       11.0682064052        0.3949529039
  O         2.6572918691        6.3402125869       10.6837871078
  O         1.6997743057        4.7236974875       12.6714482971
  O        16.6758781830        6.2031329650        2.8558120433
  O         5.0953162337       16.0465645478       14.5206966119
  O        15.2735672972       19.1813666689       16.0428033658
  O        12.9247191841        2.5817978849        6.1678868442
  O        11.5855598059        1.9911928003        1.0260075968
  O        13.1053170100       19.4674876958        5.0805162651
  O        11.8930199847        7.2248421565        1.3494223883
  O         5.0671322218       18.9273821485       -0.8974561555
  O         6.8226282507        3.9486942635        4.6401512608
  O         2.7335959704        2.0376776136        5.8966043895
  O        19.2169545411       15.9028650544        3.4230320413
  O        14.4995312313       19.7197200416       12.5410038480
  O        18.0907247800       21.0519557721        3.3531518316
  O         6.4628122168        5.1727478906       15.7730722995
  O         1.9300434300       17.9858192924       11.2100823410
  O        16.5930472273        2.6548940678        9.8508119527
  O        19.6922714815       11.6343559709        8.0612618507
  O         2.8238456107        2.9161971406        0.6477831055
  O         5.5703701307        9.3274370680       17.8958944448
  O        17.5009047709       13.4593864408        1.1932901915
  O         3.2733897324       10.5772573759        6.7581596753
  O        18.3500436204       20.0844221009        5.6998985881
  O         0.5192154238        8.4305991324       12.7803056421
  O        18.0334422103       12.7731933123       17.9730447268
  O        15.7118917979       16.6916558732       16.1995775803
  O         4.6699612287        6.2968177878        4.7936221875
  O        12.8787133919       19.6974709702        7.7197414198
  O         3.9311648814       19.5855298233       11.8499374963
  O         6.7607047176        8.5419841469        0.7181297853
  O         3.6925902347       19.3496792080        4.5856284968
  O         0.6989620950       11.1044918486       12.8257365230
  O         9.7381034116       18.7943922579        4.4840727074
  O        12.4628278592       19.5041619552        2.4595025472
  O        18.7039441026        6.6070214253       14.3502311739
  O        10.3856699732        6.3106093056        3.4476627816
  O         2.5426884395        7.2395282515        6.3732395105
  O         9.5306001991       19.8423705998        0.5199415576
  O         2.6400510656       19.1926176777        0.2588505498
  O         0.6612649887       14.6966377475        6.3323042340
  O        19.7180020056        8.2165866858       -0.3467803567
  O         3.1729242390        9.1206774980       16.8646189229
  O         2.7745784882        4.6378553998        5.4670299783
  O         2.5814846483       15.4756206613       13.7354814453
  O         3.2706345004       19.6703176591       16.4541426722
  O         1.9405392259       10.8112179847       15.1645345117
  O        17.3103321166        4.1839853132       16.3341684670
  O        18.5568539063        5.9218419074       -0.7098244718
  O         4.8377218301       13.5206803945       19.5064137430
  O         3.2461450340       17.0448198898       16.9122213292
  O         7.8479475185        4.9768197558       18.6216131367
  O        16.9508487095       17.1710156029        8.9329286000
  O         7.0825573255        6.9609869694        2.7008906940
  O        19.1459573937       17.3237989518        1.1426432431
  O         7.8038825226       18.6046862310       18.3464533115
  O        16.4364571340       11.2835832716       13.8401867701
  O        18.9706256558       16.9500016010        7.2398990247
  O        20.0043084192        3.2261979450        5.0838962290
  O        13.0763426039        2.4923234555       12.4836886256
  O         4.8901091403       18.4543071359        1.7032280320
  O         7.3187519619       16.0538442746       17.5288570139
  O         3.0493017417       17.9021444959       14.4958696596
  O         8.1372749759       10.0608250627       18.1849916281
  O        13.8204068826       14.6949306160       15.5407402446
  O         5.9487034781        1.7984107411       11.4895017034
  O        11.4736337520       15.9543880962       15.6113658869
  O         9.5429209875        2.9958309048       -0.5702660933
  O        15.6299493371       11.5339765958       18.6534275539
  O        19.1169374038        5.7647457310        3.8784681697
  O        10.1860402749        5.1324795783        0.9396607187
  O        19.7989836514       20.1441173628       13.4823916776
  O        18.2610666471       15.2462931793       18.8268337907
  O         5.8546482454        1.4632882930        5.2139802898
  O        13.7664660216        1.4841514357       17.3318300661
  O        16.6071613856       18.9494043731        1.0374634115
  O         8.1072796325        9.4523466274        3.0149087922
  O         6.1514252679       18.4985569026        4.0952761400
  O        16.8856972288        4.4140114351        4.7017730639
  O        18.7015746364       11.9198420140       15.0010774755
  O        11.9319069801       13.7468393392       17.1082035025
  O         4.6700663299       12.8160673371       16.8988028445
  O        19.9980130892        2.1948928969        1.5825644105
  O        13.2377436316       17.3157497250       -0.9299338583
  O         1.5668473791        4.1158475054       10.0574691868
  O        20.2651369622       10.6644077833        0.4196289264
  O         6.9765154915       18.7866973201       14.5902795407
  O         1.4438061755       13.2245510818       14.2681516153
  O         4.0425803013        4.4711951170       18.2488289010
  O         1.1849033557        8.1301489893       15.3871461788
  O         6.3975512389       16.4310721007        2.6320312811
  O        14.6719158584        5.3382073909       19.4659963924
  O         2.3169891102        3.4487870521       14.8437518318
  O        18.0983012406        2.6611619414       14.3199215868
  O        20.0227667777       15.2899802843        8.9508408379
  O         4.3232452101       17.8287242192        9.6781033612
  O         0.9796773184       18.3971149176       16.0570598166
  O        18.0110555675       10.3455655779       18.6986658320
  O        16.3416917334       14.1049153505       15.9229960284
  O         5.4079929394        3.2475380273        1.0608583043
  O        18.6218502237       17.7849972656       18.0704716299
  O        17.7762790493       18.3883525571       15.7314016705
  O         1.3152391475       16.3353826144       -0.6883347850
  O        10.0813523176        1.2965972423       14.1036991798
  O         4.2235634805       17.0346235863       12.2144204428
  O        18.1727944816        9.2748895566       14.6991057028
  O        20.0938274268       10.0025843357       17.2061447226
  O        14.8997414791       18.9253737921        9.2731259435
  O        18.6064830161        9.7118740000       10.9675404886
  O         7.6197621004        1.9662510249       14.7708346431
  O        15.9313679342       17.6803055914       13.8951540988
  O         3.9315027190        5.9259226817        1.0051759250
  O         3.6250563271        2.8356820287       12.4761347821
  O         7.4159354498        1.2567945628        9.4539788686
  O         2.9826734084       14.6179279997       17.9622696704
  O         5.8255387216       20.3951096035       16.4110027180
  O        15.2593425363       16.7051460330        0.7962197026
  O        16.7650307677       15.4480759601        7.0263288936
  O        10.5753421866        1.7914618086        3.4832708231
  O         2.1610027450       16.8192416948        7.0494195819
  O         3.9074925040        9.5404284065        4.1309082888
  O         3.1714485920       14.2803504974        3.1643641684
  O        13.2094050699       15.0789556342        0.7328920413
  O         1.8547358274        5.8910041375       18.5654242280
  O        12.4739397062       17.1837342943        3.7978074840
  O         3.4970296448        9.0746744048        0.3342704296
  O         4.2072719530        5.1149301876       13.6478694578
  O         2.1839102899        1.5684689306        9.2643801778
  O        16.0141063741        4.1978762455       13.9366327578
  O         7.1181313104        1.4555626233        0.2403083891
  O         9.1629298895       16.5671366217        0.1804756138
  O         4.8291667474       12.1321360431        2.3690181982
  O        16.7680907696       18.1667575602        6.5031307669
  O         5.3750110555       18.7251242558        6.7419335184
  O        16.1282529835        3.7681481954        7.4553557453
  O        12.0446672925       19.8371245732       15.6243708154
  O         7.5438668324       18.7169792261        1.7587163205
  O        19.3651548913       15.1372605439       13.1097403170
  O        16.5486293002        1.1597866159        7.6989364177
  O        18.3933175851        2.2862327287       11.6591933342
  O         1.7738836315        4.4266456928        2.6134964490
  O         2.1730909970       12.1423122824        2.0155333001
  O         1.9073049251        9.8135464627       10.8968569932
  O         2.1881274174        6.6342236286        3.8141567350
  O        11.2821899260        1.2718053438       18.0234573833
  O         5.1844806469        1.3540610575       13.9806222490
  O         8.0880089125        3.6590283448        1.5569668942
  O        11.5089685651       13.6075514594       14.4382562143
  O         7.3534995170       -0.7216234241       11.1380558064
  O        19.1813470897        2.3929449252        9.0604791664
  O         4.2742426342        7.0053885199       17.8442535180
  O         6.7474005354        1.9802891528        2.8890560196
  O        10.4363811099       18.0319759628       14.5118485996
  O         4.3416690608        2.0531186471       18.1135895835
  O        11.9215878124       19.4061998444       12.9635389584
  O         8.8306756403       16.1052803921       14.6643550930
  O         3.0137965111        2.1456189639        3.1405934899
  O         3.8282137444       16.7205563115       -0.0061720706
  O        18.5940298467       18.5573042710        3.4877385589
  O         7.1355715570       13.3106624424        1.3913716494
  O        18.1497808282        4.0992036923        2.2587059397
  O        14.8311744806        1.4365745173        0.8271450756
  O         1.2017958183       19.8996950667        4.0006342212
  O        20.0748583664        6.4650573822        1.5076538392
  O         8.5001416357        1.8501589464        4.9951850286
  O         9.2181418484        3.7567893132       13.4257727934
  O        21.4160454717       13.8256211810       11.6898050854
  O        13.0489113699        2.7839709965        3.0450541263
  O        14.7458508584       18.4588663483        2.8801076399
  O         2.8149256024       12.1329747930       18.8317467549
  O        16.9136626768       16.8640803884        2.7274020439
  O        17.8523857399       19.5998215196        9.9312974123
  O        14.8692525588       15.0371025195       18.0859563201
  O         8.4905982248        1.5648306088       12.0203970809
  O        15.2404052179        7.3573541671       16.2015427706
  O        16.6816152407       10.8790365168       16.3715182904
  O        16.3277140613       20.3509524941       18.0598089770
  O         1.5913177950        3.7943939608        7.5993864990
  O        17.0058648382       20.0336494981       12.9212927426
  O        15.6989425831        2.2805713606       15.7577222631
  O        10.8378941711        1.0224075467        6.1634440609
  O        12.0751757815        3.1310619078       16.2005184025
  O        16.3588032106       18.0255896254       11.3546444610
  O        17.5717574606        1.9510885990        0.8044936338
  O         1.3612007839       10.0434358610        4.8661159209
  O        19.9666380931       13.4334055135        0.1950298101
  O         3.1666599996       12.0313711021        4.5344262791
  O         9.2343217854        7.5802930410        1.3084641431
  O        19.3389866949        5.9883999570       11.0828442490
  O        12.8109122085       20.0601716644       10.5186395469
  O        19.0920210379       20.3363773973       17.2969343836
 Na        19.6702227047       13.7418028396        2.7638836691
 Na        11.8208087377        4.1346891742        4.2307519193
 Na        15.0431087694        9.1222992236       17.4882098109
 Na         6.1570419308       16.5205747556       10.8899927354
 Na         4.7835994843        8.3468671568        6.2006372269
 Na        17.1880279373       13.8813580442       13.4362604823
 Na         1.5983261417        0.9555963638       11.5732282084
 Na        18.3270349549       13.6166857579        7.7223429587
 Na        17.6443854612       10.4523176122        8.5565541632
 Na         7.8565533803       17.4987462702        5.1586670528
 Na        10.6610291858        4.6267405333       15.1471976907
 Na         1.7746813913        9.9190722257        8.3836022265
 Na         6.3349205430        6.0966971097        0.6927090742
 Na        10.2415093503       18.2387045112        2.2407926133
 Na        13.3221353284       17.6251590558       16.1771108430
 Na         9.4106094991        0.9965427199        8.0300059796
 Na         8.3256202476        5.2526904226        3.5741294023
 Na        18.7303052924       14.1941491121       16.2109733186
 Na        13.7917117002        3.3795720957       14.4788433835
 Na         6.0354983681       10.2751761710        3.5035272092
 Na        16.0808569851       11.5000315422        1.6154095772
 Na         1.0046931549       12.9852001880        9.6192826577
 Na         6.5325349937       18.6514256397        8.8158902891
 Na        13.8253069931        3.3990125666        0.6544641863
 Na        18.5429248236       15.8137449856       10.6836294184
 Na         4.3666528785       16.6838604037        7.6166416271
 Na        16.0430375514        7.2667227993        4.6754077981
 Na         5.0664344005        6.9176169291       14.7069157919
 Na        12.8721667911        6.5967840553       18.9594970265
 Na        19.9113265280       19.5697192705        0.3385442375
 Na        13.2850199780       19.1357383652       19.5555358510
 Na        11.2214835561       17.1969770621        5.5806995691
 Na         2.2796370643        6.0006679927        8.2606535935
 Na         8.6479403009       10.0677501599        7.3634226466
 Na        10.3069683717       12.8867159376        5.6402044665
 Na         2.3023357552       13.0332704880        6.5374535575
 Na         3.9895867361       14.3849559534       15.6368990727
 Na         7.5412096159       12.3861074044       10.8407935522
 Na        16.8244476639        5.9697384458        0.6919511225
 Na        20.8870626549       18.5958161095        8.2315343570
 Na        20.1324293801        5.0661673782       15.0159859571
 Na         4.4580132794       15.4314027510        1.7563180007
 Na        11.2071630036       15.4909856210       -0.5598875649
 Na         2.4509133091       15.6436229715       10.0699016056
 Na         1.2120298744        1.6684287309       15.3895378549
 Na        15.1706185822        1.7791503322        3.1549379057
 Na        18.3804073188        4.7098397127       12.5977409987
 Na        13.6246819970       12.6991472858       18.7621154382
 Na         4.7011887785        4.4208186832        3.2039842360
 Na        15.2964952115        3.1105866698        5.5402352523
 Na        15.9034503116       14.6724765168        2.0709613259
 Na        16.1977181005        6.4369530231       14.2082731877
 Na        15.0687340383        5.0670575007       17.2200782702
 Na        19.8175955147        7.9287213692        5.3081290517
 Na         4.2820819240        4.1720516773       16.0776448888
 Na        20.1962431996       17.7607478903       13.2434724178
 Na         2.9597089385       11.7311230738       11.7700645023
 Na        17.6695095317        6.4810917823       16.7597442418
 Na         6.9103307082        4.5236087016       13.5836799894
 Na        18.5047821918        3.2584258135       18.2413218848
 Na         4.2071788953        1.2632396255        7.8977076175
 Na         7.3087368651        3.0756121923       16.8888225798
 Na        11.0134023456        4.2291247982       11.6639524090
 Na         4.7261528389        5.3706294453       11.0159961907
 Na         6.8214396913       14.0044760800       18.0505182822
 Na         9.1859301607       17.7713754259       12.5392516681
 Na         5.3441207992       10.7373304841       16.0728742673
 Na        10.4587386581       12.1689088446       17.2950824875
 Na        14.4568385338        6.1478672570        2.3274347728
 Na         8.9699318687        9.8329471948       15.8617039142
 Na         4.2549319364        7.7510833256        2.6009345941
 Na         2.1996555917        9.6053747836        2.0388971770
 Na        18.1515499949       15.1971046420        5.2020308923
 Na         9.0980604422       11.7526057855        2.2616597540
 Na        14.8967737928       12.3819580253       15.1297780033
 Na        15.2262049425        3.3207840905       11.7781404220
 Na         1.9768702176       15.9012810373        4.7411580179
 Na        18.1721307000        3.4368777032        6.3466372758
 Si        15.9150652971       18.8677796392       12.7124771088
 Si         8.4355050420       16.9934121119       18.1679638977
 Si        18.4868654908        1.5284824186       13.1620148599
 Si        10.5312168184        6.6200147084        1.8588673188
 Si        10.4300145023        1.7416937877       -0.0777150724
 Si         3.0674021108        6.2712859731        5.2207081552
 Si        19.8761685448        6.5654817676       -0.1202227452
 Si         7.7962606058        8.2126455929        2.0550224935
 Si         2.5869912021       18.2212176010       16.0091904081
 Si         3.5049519395        5.9023843616       -0.4942357359
 Si        18.9445822968       18.8001173345       16.8405826239
 Si        16.8122448038       19.7381430204        6.1551232929
 Si        17.0261127214       11.4513976569       17.9139265515
 Si        18.4111124410        2.5227069080        2.0572749699
 Si        20.2766113749       15.8827397323        7.4423325992
 Si        19.1526538377       16.5898370256       -0.3405950842
 Si         8.9669263675        4.3830743262        0.2336703667
 Si        19.2624472412        8.0848688103       14.2124538359
 Si         4.0499679957       18.4594521210        0.3268374723
 Si        15.2229931465       15.0935892082       16.4691336200
 Si        15.8297628624       17.7917681595        1.8503116676
 Si        17.4648979330       10.7768996992       14.9448200277
 Si         3.8207485970       16.5984009813       13.7757389447
 Si        20.4450378389        5.8144131500        2.9598318375
 Si        15.8146422402        2.5246619755        8.3220751550
 Si         6.9309296063        2.5466972477        1.3855233815
 Si         1.4381635955        5.4042169775       11.1338856167
 Si        12.5311128381        1.0326748840        6.2807113103
 Si        18.0132088348        1.8701570676       10.0929144586
 Si        19.5215138207        9.7763910868       18.6802874517
 Si         9.8775110022        0.9817414167        4.7855483112
 Si        14.0869851427       16.1204483481       -0.2074667248
 Si         1.8063415583        9.5007927044       16.1316141194
 Si         7.3446668658        0.8764441315       11.0167443144
 Si        16.4834903280       18.5903182009        9.7973138640
 Si        19.9712195048        9.7256751844       11.7858924601
 Si        13.6822873660       19.9751936555        9.1458385442
 Si         2.9257241283       10.3688697006        5.1087388561
 Si         4.2019983896        3.1596124117       -0.0948364510
 Si        16.2469010000       17.9958595275       15.4716100254
 Si         5.8234398377       12.4525756147        1.0735689204
 Si        15.2647333506       20.5745735196       16.8175077570
 Si         4.6802416560        1.5333268236       12.4002096753
 Si         2.8537407271       16.1991549353       18.2471465355
 Si         2.6412484992        1.2001398296        4.4590255325
 Si        12.2120034843        1.6577997715       16.7261776457
 Si        10.0341927799       16.7199300880       15.5609148934
 Si        17.3610542607       16.9150360259        7.3852061031
 Si        18.3871935933       13.6660479418       -0.0535429476
 Si         8.8414929335        2.2048924764       13.5428154339
 Si        17.6190103401        5.0768305582        3.4956702455
 Si         6.3874696775       20.1963894261       14.8555447187
 Si        11.0866053108       19.5361659748       14.3808612838
 Si         6.9905678774        2.3478914153        4.4629568487
 Si         3.5898536333       18.1087734564       11.1219348456
 Si         7.9354307753       19.3938387865        0.3387295492
 Si        13.0093000548       20.3339773416       12.1512482319
 Si         5.2963588970       19.2785672982        5.2501197997
 Si         0.8061550434       11.6953378944       14.2938573420
 Si         1.4266221009       14.4439877718       13.0548377414
 Si         3.3996758889       12.6955593400        3.0850677236
 Si        13.2374100452       18.6184420082        3.6938715532
 Si        16.8053848577        3.3796603541       15.0976805232
 Si         4.6145293488       20.0475230196       17.3356486598
 Si         1.3696851215        2.9075365546        8.9998211197
 Si         4.0458564397        8.6232601172       18.2490258605
 Si         6.2272809570       18.0276575255        2.4932050038
 Si         1.9958523751        2.9060140142        2.0712978828
 Si         1.6217303159       12.1444083829        0.4983234536
 Si        16.2930746777        1.0554307211        0.2984888186
 Si        18.5174148140       17.0864268763        2.6563614229
 Si        12.1616063969       14.4277521883       15.7217565814
 Si         2.9841041398        3.9870165225       13.5080403841
 Si         6.7786541123        9.7360268783       -0.4005170589
 Si         1.8511107699        3.4516688255        5.9666121137
 Si        11.9300899590        1.7066125080        2.5894624757
 Si        18.9678664834       19.9054225889        4.2424224824
 Si         3.8773639780       13.1725345857       18.2312014375
 Se         4.9195527165        9.4755903006       13.2585670432
 Se         8.0517304023        7.0410588729        6.7277096215
 Se         5.1668835538        4.2308665074        8.4426142389
 Se         8.2324278595        6.4749629015       11.3067151877
 Se        10.1932089537        3.8232758388        8.9032320346
 Se        14.0574852562        5.1724526367        9.8114948760
 Se         4.6041070776       13.3226246153        9.0930744879
 Se         6.8421594577       11.6643262855        5.9119821681
 Se         5.5541454634        8.7199183707        9.3345987157
 Se         9.2941104566       10.1433619762       12.7201544791
 Se        11.1903718005       10.0138552891        5.0199397087
 Se        11.4780384079        8.3283938407        9.3124033840
 Se        12.4262117341        6.3456020530       13.3307033637
 Se        10.3003800595        7.2796720407       16.7789740292
 Se        13.4176179621        6.2226847976        5.9126864782
 Se        15.7392042186        8.3295914766       11.6380586743
 Se        10.0166743310       14.6758184494        3.4270530150
 Se         7.5340789026       15.9730542990        7.4878336824
 Se         8.9872311144       14.7804457332       11.7865789191
 Se        11.3780652713       10.8561818687        0.5226499059
 Se        10.0269856352       12.1543859247        8.5186382298
 Se        13.1021693334       11.7289247005       11.6732343563
 Se         7.9588812110       12.4624540715       15.9027757847
 Se        14.7734408366        9.1582443021        2.7362746842
 Se        14.5690399841       10.2442830672        7.5452838883
 Se        16.9937091095       13.2733383519       10.4411383021
 Se        12.4784947922       10.3612379416       16.2280366483
 Se        17.7812172324        7.5336541865        7.4369484611
 Se        10.5249490671       17.4009727029        8.7373460666
 Se        13.6312247643       15.9718141266       12.1935056450
 Se        13.8218590123       13.1532834544        4.0480383699
 Se        13.0873919920       14.8099533543        7.8911992367
 Se        17.2939048013       12.2912521270        4.7996364332
 Cd         6.0037945398        5.2946247039        6.2676065103
 Cd         9.5322845498        6.5080606190        8.7971711174
 Cd         3.5419874224        8.3531627739       11.2139210888
 Cd         8.0446903633        6.2299124881       16.6274003561
 Cd        12.6103498131        4.3302336371        7.7142547525
 Cd         7.5678185325        3.4938719353        9.1182483289
 Cd         5.1555002392       10.9252487325        7.7635575784
 Cd         6.4034149875       13.8099356833        7.2090329831
 Cd         7.0856162963        8.9540137000       11.5981639290
 Cd        10.0382845186        8.8913152040       18.9007820343
 Cd         9.3797219016        8.2156993017        4.6200863105
 Cd        12.5908398992        8.6223420222        6.8989787252
 Cd        10.1344348012        7.5156338662       12.9786564842
 Cd        13.4449045229        7.8720571673       15.2953379231
 Cd        15.7517668079        6.0466213254        7.9118309198
 Cd        13.4642866447        7.5348219746       10.9158997633
 Cd         9.5968197676       14.9417610759        8.9788460979
 Cd         8.8084368511       13.8258082470       14.1110320642
 Cd         6.8224006708       16.8494363532       15.4469141324
 Cd         8.0732037480       15.3413781139        1.8556744601
 Cd        12.8333894461       12.1441207047        8.0598847021
 Cd        10.8647758572       10.5870843567       10.5145832441
 Cd        11.6477438227       11.3605498404       13.9004198899
 Cd        12.2169572616        9.4210868606        2.6900610155
 Cd        15.0982069722       10.4695372083        4.9337524216
 Cd        14.6847882816       14.3577345956       10.1192374798
 Cd        16.5894610956       10.8697087390       11.4888365218
 Cd        18.0720689805        7.4886137838       10.2415858489
 Cd        12.4606119197       14.9905355121        2.7842715606
 Cd        12.4204806003       17.1986909070       10.4007223452
 Cd        14.9491150909       14.3792893135        6.0505967018
 Cd        11.6319872645       14.1586162044       12.0569809101
 Cd        19.1940282704       11.2974876581        6.0025571502
