417
 i =     6100, time =    12200.000, E =     -8967.2010177126
  O        14.3188564486        2.2631882244        8.9741187982
  O        15.6518468187        1.2305912697        5.3732135970
  O         9.3671822272       17.4596215243       16.9155130085
  O         5.9523421610       10.8781341821        1.3303174370
  O         2.5772140351        6.5302909687       10.4064948364
  O         1.6860542859        4.8806529890       12.4350466783
  O        16.2272512455        6.2997007158        2.5374480977
  O         4.7181458579       15.9373857135       14.6820500498
  O        14.9543095890       19.0344860919       16.2578827216
  O        12.8176771743        2.7071792666        6.3990126140
  O        11.3740976062        2.3659618459        1.1414430265
  O        13.0805544799       19.6102989349        5.2232563244
  O        11.5990641913        7.4614451843        1.2167060653
  O         5.0078950412       19.3226355446       -0.7027212984
  O         6.7187276259        4.0037123745        4.6992420151
  O         2.6508657117        2.1246700469        5.7386927910
  O        19.0696627612       16.0069827924        3.4022419155
  O        14.3414690100       19.5842052530       12.6792539078
  O        18.0832529024       21.0520820564        3.2528679546
  O         6.0264007223        5.1347846728       15.8315867667
  O         1.8438425627       18.1180783087       11.1289647795
  O        16.5312477554        2.6474851705       10.0591317853
  O        19.3097942127       11.9122676193        8.1053454070
  O         2.7914424087        3.3757870018        0.7926774225
  O         5.0692912454        9.7216634103       18.2537695033
  O        17.3193770503       13.4737432748        1.4694937662
  O         2.7652192190       10.5600084369        6.8504426795
  O        18.3580026986       20.1252810165        5.8092492493
  O         0.6143764488        8.7771642144       13.0741518738
  O        17.6508606996       12.9953390433       18.2334973894
  O        16.0182272074       16.5587117564       16.3154030144
  O         4.1911120237        6.5957599059        4.8417698886
  O        12.7896916861       19.7498004194        7.8668248431
  O         3.7359603641       19.7294555692       11.7575574765
  O         6.7361736015        8.4163186261        0.5917254371
  O         3.6821743089       19.4871167526        4.4370234510
  O         0.2671793925       11.4877639743       12.7619104603
  O         9.2855725287       18.8477694697        4.6521403136
  O        12.4394942482       19.8592272190        2.6970517125
  O        18.3282821703        7.0544469039       14.4459384646
  O        10.1580446774        6.1875262069        3.2063397541
  O         2.1583460906        7.1774079161        6.5288700685
  O         9.5374511827       20.0800617515        0.5557592226
  O         2.6834170608       19.5896870866        0.6097613239
  O         0.5601376866       15.0703033083        6.2012436028
  O        19.4323733158        8.4820509253       -0.4375847416
  O         2.8538669982        9.7086466881       16.9807505099
  O         2.2972817442        4.7360214046        5.4977437645
  O         2.1149671310       15.8143904492       13.6970820166
  O         3.1253801897       19.5048495983       16.8119799392
  O         1.5531013257       11.2060434143       15.1375251719
  O        17.2393115989        4.2641513403       16.2642572000
  O        18.2913680344        6.1801816429       -0.9328723522
  O         4.9655233527       12.9947986587       19.2933203080
  O         3.0877753087       16.8597795181       17.0291213841
  O         7.8534107457        5.0194418051       18.4060272267
  O        16.9916903548       17.3202623661        9.1564459439
  O         6.8526978559        6.5514298644        2.3788688125
  O        18.9062364229       17.5869799079        1.2710461845
  O         7.8159397503       18.6607296707       18.5303432882
  O        15.9531273911       11.3440915282       14.0873027298
  O        18.9031506708       17.2708693254        7.5617918693
  O        19.6931160170        2.9110709606        4.8737496343
  O        12.9671511127        2.4667751238       12.4254582770
  O         4.9632281629       18.6585601774        1.7581452735
  O         7.2026212718       16.1000422427       17.6617697133
  O         3.1119290824       17.9634959650       14.6484620421
  O         7.5881918154       10.5374555375       18.5059161429
  O        13.3242189182       15.6087036552       15.9502733406
  O         5.9273666351        2.0964674033       11.6781544001
  O        10.7043065310       15.4889547438       15.6486611680
  O         9.5520483704        3.1868487484       -0.6205193278
  O        15.3044046601       11.5557687957       19.0282838692
  O        18.6105922864        5.8887642689        3.8061525679
  O         9.9996173083        5.4234301553        0.6580798456
  O        19.5601473963       20.0933642538       13.4663986196
  O        18.1994433585       15.4510880363       19.1413695796
  O         5.5375343870        1.6803818483        5.0775849115
  O        13.5767076227        1.4414631926       17.3466421044
  O        16.3497871615       19.0110908444        0.9678291561
  O         7.7412312427        9.1168986987        3.1329075094
  O         6.0617453917       18.6421999107        4.1051966254
  O        16.5436161469        4.4903959057        4.5275626057
  O        18.3972506774       12.0819585890       15.0808213314
  O        11.8563806822       13.7559278675       17.1394779828
  O         3.8845655756       12.9005158180       16.7398450412
  O        19.8411134414        2.4220702456        1.5724181554
  O        12.6140191170       17.3750874334       -0.5140040602
  O         1.5846002886        4.1583695260        9.7996562662
  O        19.8456401654       10.8293692837        0.7386655047
  O         6.5688279569       18.7764416088       14.7373702144
  O         0.8914609050       13.6275615854       14.1798961828
  O         3.9736425481        4.8540891569       18.4044113265
  O         0.8107600034        8.7829612202       15.6066426278
  O         6.3214078404       16.4888798183        2.8229771764
  O        14.2691884749        5.4878577632       19.2546697477
  O         2.3149146211        4.1416822785       14.8107106640
  O        17.9649864571        2.6662442797       14.3824168315
  O        19.9403948496       15.2135175127        8.8734507181
  O         4.2894873346       17.7442095208        9.9095642691
  O         0.9249205261       18.1698476844       15.9978406658
  O        17.5577214529       10.3608254850       18.8284594496
  O        15.5204253493       14.0965249494       16.2398455798
  O         5.3445778067        3.5141996224        0.7697929821
  O        18.6368532414       17.9042931334       18.1461640579
  O        17.6556250728       18.5068163878       15.8576177594
  O         1.3172143540       16.5561514897       -0.3961538166
  O         9.6343505072        0.9979710225       14.4366022963
  O         4.0209980844       17.0132880552       12.3149733878
  O        17.8067250958        9.5304403307       14.8110684594
  O        19.8204833555       10.6938627561       17.4851496118
  O        15.0131687052       19.1680298180        9.4815101522
  O        18.5848882314        9.7311434378       10.9187039163
  O         7.1834051655        1.9632330644       14.5896612654
  O        15.8286910440       17.8824821813       14.0777627513
  O         3.6831443346        6.2526156357        1.0886879705
  O         3.2495060898        2.7431600187       12.4729050866
  O         7.7268752083        1.3040017237        9.6261518163
  O         3.0390621195       14.6965305981       18.5838659277
  O         5.4637495652       20.6827939910       16.4082898750
  O        14.6203276849       16.9105286376        1.2752647502
  O        16.8014109821       15.7461477823        6.8077963862
  O        10.5274311142        1.8582700761        3.7084577776
  O         2.1140278399       16.8981552229        7.5488648337
  O         3.3974598603        9.6290458272        4.2388186715
  O         2.8744031313       14.4380371754        3.2692401904
  O        12.8368903958       14.9648172854        0.7495001262
  O         1.6005715040        6.3040959389       18.6444490892
  O        12.2825662701       17.5608887863        3.8495909881
  O         2.9487106905        9.0616288764        0.3239615618
  O         4.2588524869        5.0862795833       13.1946907395
  O         2.1799779573        1.6224638772        9.0985375274
  O        15.7382134832        4.2783134670       13.9896766231
  O         6.9700097686        1.4553523073        0.2477535080
  O         9.0384301053       16.4065070909        0.0855131185
  O         4.3873215344       12.4540045252        2.4736970677
  O        16.6568666504       18.4297091993        6.6690593935
  O         5.2632792129       18.9411785316        6.6992741561
  O        16.0329065580        3.9143067949        7.5525253557
  O        12.0660434365       19.9790640315       15.4790117712
  O         7.6282006543       18.6083102345        1.7950774659
  O        19.0720622758       15.3837744164       12.6206740360
  O        16.6847164584        1.3399087768        7.7875520429
  O        18.4980552294        2.3712043495       11.8401660497
  O         1.5392552098        4.6688063323        2.6314903882
  O         1.7135395128       12.3023787219        2.2321723791
  O         1.7968512563       10.1392947943       11.0845500453
  O         1.7070400711        6.9231367995        3.8837478283
  O        11.0904331505        1.3200871122       17.9429457238
  O         4.8039228417        1.3101534539       13.9446836510
  O         7.9264109914        3.7723740388        1.3850880056
  O        12.3130030880       13.6257723763       14.4498100044
  O         6.7834666083       -0.4533942698       11.3757934328
  O        19.0737094169        2.3554309838        9.2372385507
  O         3.8899008275        7.4041648387       17.9223794062
  O         6.6161121414        2.0705966201        2.7884239762
  O        10.7300375429       17.8912375283       14.7561477190
  O         3.8737879482        2.4022547540       17.9537732406
  O        11.6339894551       19.5959565167       12.8992898260
  O         8.4339029564       16.4275264393       14.7526254220
  O         2.7031195978        2.1667930620        3.0229405586
  O         3.8447650831       16.9676708479        0.1339743252
  O        18.4684592199       18.5708918997        3.7849910220
  O         6.8203475025       13.4570886215        1.6417145851
  O        17.6297456679        4.0113858887        2.1485356308
  O        14.8386151992        1.7472863097        0.9832914367
  O         1.1631609976       19.7882154458        4.2464606881
  O        19.5476518051        6.6465544503        1.4607895084
  O         8.2896881838        1.9130594723        5.0444334706
  O         9.0280913528        3.6470862101       13.9499276186
  O        21.3000670189       13.9221486777       11.6865664923
  O        13.0003568333        3.0375076498        2.9952749627
  O        14.7145876501       18.7348908667        3.1123266698
  O         2.5477213518       11.9739051564       18.8992618780
  O        16.7192981133       17.0739815389        2.6777395262
  O        17.8347636038       19.6543198527       10.1262796767
  O        14.6313068296       15.6613581921       18.2884381958
  O         8.4077482615        1.7024622605       12.1997871945
  O        15.1363143595        7.3153365802       16.1187141076
  O        16.4612464208       10.9903007883       16.6050493995
  O        16.2066326564       20.6515205348       18.0892221201
  O         1.1167860295        3.4879589312        7.3599242887
  O        16.7906430294       20.1681360164       12.9209007522
  O        15.6796107719        2.1088224002       15.6493676462
  O        10.6873092898        1.1227655133        6.2419582155
  O        11.9844454447        3.2290678093       16.0596439810
  O        16.2073416676       18.0748741900       11.4812967935
  O        17.6272217841        1.8996523705        0.6058152314
  O         0.9022572714       10.2198313062        4.9188745910
  O        19.8664324504       13.5225537148        0.2550404612
  O         2.6641584469       12.2059069341        4.6464902726
  O         9.0728759188        7.7949101493        1.4100016989
  O        19.2975257665        5.9469584088       10.8416468041
  O        12.7990624654       20.0012222773       10.5303105951
  O        19.2892010490       20.3240569096       17.2807175498
 Na        19.3942588358       13.8592313497        2.8866442134
 Na        11.7688189459        4.9364367268        4.1982411764
 Na        14.9292862722        9.0217312905       17.7238207969
 Na         5.9113308326       16.5668262323       11.0543772055
 Na         4.4656665057        8.3928004006        6.2237039291
 Na        17.2118390088       14.1712382504       13.2185706698
 Na         1.7912176924        1.1767944086       11.4570239316
 Na        18.2209437217       13.8108636042        7.7289965650
 Na        17.6809902679       10.6639976695        9.0734389039
 Na         7.8081247700       17.0887252370        4.9982101292
 Na        10.4147086323        4.7218567984       15.2940644265
 Na         1.4137173308       10.1792137648        8.5356235253
 Na         6.2251403838        6.1088876536        0.1904532139
 Na        10.0756165190       18.5809912490        2.6643173960
 Na        12.9084731278       17.8621549479       16.3501394949
 Na        10.0489714294        1.0314667795        9.0932682440
 Na         8.1366556833        5.0457014616        3.4546609033
 Na        17.6948341284       14.3727465709       16.5589001534
 Na        13.5315738606        3.7019026920       14.3202525262
 Na         5.5793096837       10.2821875806        3.5526716276
 Na        16.2337796210       11.4510548447        1.7113182867
 Na         0.6137210487       13.2079174081       10.0453184433
 Na         6.2709494832       18.9627219764        8.7199448968
 Na        13.5922127519        3.6405143441        0.8428558719
 Na        18.7242501795       16.3002640900       10.3574157425
 Na         4.3574889276       17.1216156147        7.6226712533
 Na        15.5777574406        7.3283212091        4.6970581449
 Na         4.6978451156        6.5238246367       14.9504996707
 Na        12.1026103168        6.2700510331       18.7148732449
 Na        20.0523226408       19.6295744418        0.4381503404
 Na        13.0540025711       19.3873951067       19.8541619640
 Na        11.4190534339       17.2751546011        5.8697535559
 Na         2.3708493672        5.8070077478        8.0739489091
 Na         8.3604983227       10.2357570424        7.4935020658
 Na        10.4385704607       13.1472748475        5.7764414961
 Na         2.0883262177       13.2865437704        6.7319505932
 Na         2.9264606789       14.3087410755       15.4251037462
 Na         7.5312319345       12.3771687282       10.8343644175
 Na        16.4273960938        5.5280719171        0.2314858361
 Na        20.6035594969       18.7819832910        8.7993221919
 Na        20.5259023239        5.9716243894       16.3555166854
 Na         4.3172620768       15.6760072522        2.1688165825
 Na        10.9096710179       15.2076794517       -0.7447642125
 Na         2.7175593310       15.6625959160        9.8357346455
 Na         1.3590206131        1.6444290013       15.2088164990
 Na        15.3011325344        1.9970590377        3.3549945753
 Na        18.6439408275        4.9020349581       13.1427904005
 Na        13.4694368936       12.8990204603       18.9134078214
 Na         4.6922226862        5.2884348758        2.9607650498
 Na        14.6783174725        3.4818137420        5.6338854164
 Na        15.5206014556       14.6890819672        1.9599249933
 Na        16.1158943814        6.6007716091       14.1085237923
 Na        14.8228169695        5.3022785936       17.1012538728
 Na        19.7229058163        7.8976311363        5.5234406506
 Na         4.1883078484        3.8384470151       16.0911205367
 Na        19.9949973697       17.8950681630       13.2847866668
 Na         3.2808388932       11.8251460590       11.6182737918
 Na        17.3845675055        6.9545379392       16.4866239954
 Na         6.7111274483        4.5798453559       13.6310003395
 Na        18.3412102375        2.9635562085       17.7163783616
 Na         3.9308023076        1.6688683660        7.6282460138
 Na         7.3621809826        3.3225922801       16.7129686062
 Na        10.8657634474        4.0248037993       12.0868785227
 Na         4.7817147169        5.4482632820       10.8397531844
 Na         6.8967399597       13.9947454732       18.1143668379
 Na         7.8278428920       17.9092995365       12.9825971178
 Na         4.5658162231       11.0330719784       15.8239956747
 Na        10.5339395509       12.0398943160       17.2023771436
 Na        14.2506278950        6.8189123381        1.6804302798
 Na         7.8113496756        9.6111389636       15.3245308044
 Na         3.6033733172        8.2182471152        2.4809251672
 Na         1.3563062580        9.6458114897        2.6917127914
 Na        17.9769943560       15.2385876609        5.1454657092
 Na         8.9052945326       11.3462781194        2.8400850464
 Na        14.3368210417       12.4653119843       15.4151457054
 Na        15.2092734258        3.2899749286       11.9166380597
 Na         1.5709721869       16.4668797830        4.6525374081
 Na        17.9763041387        3.9595152066        5.9086372359
 Si        15.7796072701       18.9170307161       12.8400107595
 Si         8.3482942145       17.1032723934       18.1947266248
 Si        18.2699889178        1.5641292085       13.2020538688
 Si        10.2952793411        6.7170833726        1.7069182136
 Si        10.3698712584        1.8732091054       -0.0635474645
 Si         2.6573422726        6.4019432503        5.1992234739
 Si        19.5159953658        6.8618156658       -0.1566419194
 Si         7.5033136688        7.9640605329        2.0448176642
 Si         2.5896284667       18.1184895705       16.1324026272
 Si         3.2658043572        6.2732255651       -0.4293967832
 Si        18.9947699646       18.8588216367       16.7670452626
 Si        16.7338197103       20.0725129630        6.2958112858
 Si        16.6447952007       11.6077179070       18.2277484582
 Si        18.2965415238        2.5902811935        1.9843052943
 Si        20.1352342859       16.0489057795        7.5059255179
 Si        19.1164072400       16.8529807854       -0.1511764841
 Si         8.8014181982        4.4318289409        0.1010112241
 Si        19.0217691042        8.5199155824       14.3555472212
 Si         4.0071868955       18.6870339665        0.4373252120
 Si        14.7798747903       15.4556326604       16.6554618522
 Si        15.5966176900       17.9973568092        1.9808687964
 Si        17.1452998422       10.9952146587       15.0821305617
 Si         3.5566955195       16.6077930270       13.8061549564
 Si        20.0115579931        6.0002927239        2.8913649618
 Si        15.8349582064        2.6292049632        8.4529212170
 Si         6.6827593726        2.6715020865        1.2821411023
 Si         1.4341878506        5.4052179551       10.8215066400
 Si        12.4131893493        1.1945450487        6.3748784355
 Si        17.9939265154        1.8969889379       10.2903923101
 Si        19.1381993962       10.0629627896       18.8560246811
 Si         9.6472863309        0.9695793132        4.9076307841
 Si        13.6433261504       16.3104732789        0.0634808100
 Si         1.4251385343       10.0546034920       16.3366360686
 Si         7.2225046138        1.0781898178       11.1962550203
 Si        16.5125749230       18.6417947412        9.9969809394
 Si        19.7883153074       10.0217621450       11.9363750955
 Si        13.6526145354       20.0822599248        9.1612686590
 Si         2.4861573036       10.5603016301        5.2381906196
 Si         4.0174968080        3.4475055297       -0.2061575941
 Si        16.1476489256       18.0267166528       15.6960443194
 Si         5.5641626025       12.5151406160        1.3474279975
 Si        15.1796940161       20.6026358919       16.8356867758
 Si         4.4904980372        1.6661955828       12.4157156690
 Si         2.8145013774       16.2720151078       18.5301203287
 Si         2.5781082158        1.2570947550        4.3612526857
 Si        12.0829919395        1.8103634783       16.6874255149
 Si         9.7468877911       16.8290114047       15.4473624081
 Si        17.2777252836       17.1564679687        7.3992381470
 Si        18.2118908414       13.8099487925        0.1801665444
 Si         8.5997666221        2.1185602393       13.7837494419
 Si        17.1049842324        5.1766797233        3.2644130613
 Si         6.0233379523       20.2329203165       14.9061100973
 Si        10.9428293048       19.4666611614       14.3955464092
 Si         6.8126874427        2.4818850681        4.3824543180
 Si         3.4643943419       18.1722741783       11.1816576297
 Si         7.9243136995       19.5366158075        0.4447359014
 Si        12.9753759701       20.3072599247       12.1725512954
 Si         5.1605139319       19.4890426568        5.1840385563
 Si         0.4072597350       12.1145904251       14.2812708600
 Si         1.1072797471       14.6890103213       12.8558717397
 Si         2.9658243769       12.8998020275        3.2069431861
 Si        13.1999587374       18.8394703790        3.7765845382
 Si        16.6582264245        3.4368916889       15.0049995580
 Si         4.3713085814       20.2738950194       17.5572556744
 Si         1.2229408385        2.8507263211        8.8592449826
 Si         3.5882725990        9.0240518047       18.2854506827
 Si         6.2380874999       18.0632103548        2.5960374000
 Si         1.8520442818        3.1443851888        2.0881098893
 Si         1.3977696131       12.2275953784        0.6625579327
 Si        16.1831458543        1.1971722621        0.4007204820
 Si        18.3055018483       17.2509576740        2.8300931736
 Si        12.0294225890       14.5057428204       15.7715955173
 Si         2.9198102512        4.1787467387       13.3102578087
 Si         6.3838376336        9.9004050566       -0.0397252236
 Si         1.4926996439        3.3410258689        5.7807656466
 Si        11.8330205298        1.9981345672        2.7468349372
 Si        18.9070099884       20.0485509893        4.2733335307
 Si         3.6670368100       13.1098611043       18.3313508110
 Se         4.7458470440        9.3763991997       13.2731186829
 Se         7.7585162673        7.4779272951        6.6992944620
 Se         5.0634286561        4.2074237014        8.1786665052
 Se         7.8629693486        6.3804216030       11.4873361364
 Se         9.8119032392        4.0569262432        9.1306543718
 Se        13.8633111157        5.3292960263        9.9868011687
 Se         4.8513230200       13.2957011076        9.5764869416
 Se         6.3528360718       11.7238818532        5.8835677687
 Se         5.3059281522        8.7402661136        9.3438676802
 Se         8.9991644914       10.2897283868       12.6361031152
 Se        10.8454050454       10.0959261875        4.8378011802
 Se        11.1849085568        8.2290244242        8.9593746167
 Se        12.0725805285        6.4894922180       13.3139591555
 Se         9.6568233032        7.6700494151       16.4146828701
 Se        13.0848721839        6.2158149502        6.0924471032
 Se        15.6319646748        8.4922349377       11.5926200488
 Se         9.5688384670       14.9348902784        3.7553578222
 Se         7.3360263689       16.0277147636        7.5979939327
 Se         9.1601954456       14.5393103640       11.8147986219
 Se        10.9905273811       11.2288015276        0.6422360573
 Se        10.0296052439       12.5363388266        8.5914471643
 Se        12.9578847832       12.0169912317       11.5839844502
 Se         8.0679736337       12.4983527973       16.1211554935
 Se        14.7673950797        9.6736360135        2.9845703541
 Se        14.3248546097       10.5910776046        7.6191606643
 Se        16.6692197474       13.1681212493       10.7247147449
 Se        12.2949161229       10.2233567834       16.0219266022
 Se        17.3246719611        7.8459343761        7.6196832377
 Se        10.3102530342       17.6394172012        8.5777742894
 Se        13.4284813339       16.3575161294       12.2779145893
 Se        13.4161331496       13.7215291527        4.5281261853
 Se        13.4760942757       15.1400756237        8.1726881561
 Se        16.9007004112       12.6956669580        4.8731304201
 Cd         5.9613411411        5.5418688559        6.0958309683
 Cd         9.1001599705        6.6389777661        9.0635981384
 Cd         3.2157661386        8.5105430431       10.9598945382
 Cd         7.4866893513        6.3307006972       16.6325348791
 Cd        12.3432559810        4.4525284969        7.9703461571
 Cd         7.4044578482        3.1873579794        8.4725973078
 Cd         4.7083037231       11.0141716417        7.9015845303
 Cd         6.3903252684       13.7527509327        7.3165362555
 Cd         6.7109911429        8.9834809807       11.7543478192
 Cd         9.4450379848        9.4294732319       18.8362134477
 Cd         9.3194317077        7.9683885478        4.6701724264
 Cd        12.5235266591        8.6514626195        6.7006551249
 Cd         9.6558410774        7.4355149608       12.9829592523
 Cd        13.3377022518        7.7992929920       15.1690299049
 Cd        15.6885504534        5.9974360526        8.2221785112
 Cd        13.1681772964        7.6395691039       10.7897616672
 Cd         9.4162635150       15.2645896067        9.1909406874
 Cd         8.5318315326       14.0207413613       14.2154386770
 Cd         6.3622517989       16.9357483984       15.8347673964
 Cd         7.9761924320       15.4198058648        1.6923213920
 Cd        12.7597569005       12.7061235442        8.1266974388
 Cd        10.9529889898       10.5171773048       10.1923096358
 Cd        11.4863949332       11.1390640319       13.7186242215
 Cd        12.1495524859        9.4703512001        2.3481047501
 Cd        14.8147139131       11.2461414583        5.1407590228
 Cd        14.9289618425       14.9370443504       10.4590331957
 Cd        15.4688057010       11.1632808529       11.9584513710
 Cd        17.9022669423        7.5281380401       10.3204621316
 Cd        12.0265852722       15.1479281792        2.8074960805
 Cd        12.0670312952       17.2571272757       10.3086553269
 Cd        15.0075060576       14.9251491763        6.1152548157
 Cd        11.7655356897       14.2439839964       12.3124073836
 Cd        18.8460735452       11.4262364634        5.9854942478
