417
 i =     7000, time =    14000.000, E =     -8967.2279540890
  O        14.5333502165        2.0386407784        8.8306918236
  O        15.8294902550        1.1123231098        5.1800232633
  O         9.6886887764       17.4941397256       17.0729130112
  O         6.1298719269       10.8936626622        0.9744506852
  O         2.6079584261        6.4715303529       10.5518178110
  O         1.6641313316        4.4924309046       12.3139389423
  O        16.9219102683        6.3297174669        2.6076347251
  O         5.0337911450       15.7742074153       14.1963445832
  O        15.2712233408       19.0925774901       16.1601264655
  O        12.7951951341        2.5161216837        6.2848079794
  O        11.7240889420        2.0772543641        0.9959609823
  O        12.8707404178       19.3551948675        5.1637457476
  O        11.8211818295        7.6006710870        1.2835878758
  O         4.7763710327       19.2083132153       -0.8307690902
  O         6.7023204613        3.8878545671        4.6302445485
  O         2.8355471233        1.8734634844        5.9030118015
  O        19.3017837570       15.7576551628        3.0138748832
  O        14.5903399657       19.5343169775       12.4343543899
  O        18.2615603073       20.8575810374        3.3804957768
  O         6.2011146774        5.2667980601       15.8637687646
  O         1.9469767859       18.2612517898       11.0519324158
  O        16.7956020888        2.7341289330        9.7801674851
  O        19.5860550807       11.5363549907        7.8068415205
  O         3.0749068596        2.9210161817        0.7917500597
  O         5.4196259075        9.6633836514       18.0417524253
  O        17.5317711444       13.3873155935        1.3810325927
  O         3.1700410735       10.3814574327        6.7485872642
  O        18.3849538196       19.6824040455        5.8306435982
  O         0.4728444649        8.4803504299       12.7649597669
  O        18.0998125105       12.7368036672       18.1849984740
  O        15.5694185327       16.6714053332       16.3272991219
  O         4.5942072750        6.1948997670        4.6864589161
  O        12.7107699026       19.6994392296        7.9158295052
  O         4.0937447985       19.7405163183       11.4531915586
  O         6.8347233818        8.4320148001        0.5577585605
  O         3.7969107450       19.2198050287        4.6693812926
  O         0.4963032555       11.2968381416       12.8711574511
  O         9.5468350083       18.6973362735        4.5027140088
  O        12.3780728390       19.4872575894        2.5613661817
  O        18.6629796200        6.8543095334       14.4099238046
  O        10.3900103040        6.2516348403        3.3013817025
  O         2.7051262433        7.0514852025        6.4065354692
  O         9.7948341706       19.8291164509        0.3791513895
  O         2.6949504569       19.2179638425        0.7456702484
  O         0.6831301482       14.7507827239        6.2167364678
  O        19.5055363042        8.1622942618       -0.2135193644
  O         3.2060896863        9.3386376055       16.8659131973
  O         2.7851103042        4.4864321233        5.6691363611
  O         2.3546544970       15.8502449876       13.6178991804
  O         3.0943009558       19.7865261446       16.4501524822
  O         1.9395941075       11.0121471076       15.1740700828
  O        17.2500325395        4.2308772595       16.4418382247
  O        18.6578419337        5.7715479425       -0.6840902087
  O         5.1078490402       13.1844786931       19.3888463008
  O         3.2566350062       17.0443743204       16.9072294280
  O         7.9833260684        4.8839605934       18.4957890180
  O        17.1259193300       17.3365078270        9.0079738200
  O         7.0009313122        6.7300129911        2.4995190655
  O        18.9273083160       17.4882013063        1.0442264431
  O         7.8060979590       18.5574547184       18.3808215902
  O        16.5283918346       11.6553549884       13.9304734260
  O        18.8953125201       17.0647137343        7.1137506470
  O        20.0241424737        2.9821580426        4.8343437485
  O        13.0502092190        2.4510105894       12.5136399733
  O         5.1828066134       18.8183961254        1.6882700932
  O         7.1840763312       16.1984666100       17.3723349645
  O         3.3915201715       18.0324265534       14.5099143705
  O         8.0100600022       10.2609157123       18.4256562752
  O        13.7525650836       14.7614359947       15.7374648609
  O         6.1354463602        2.0378301534       11.6863753007
  O        11.4486212576       15.9747584300       15.7655446446
  O         9.7672334419        3.0320434804       -0.5640210666
  O        15.6459982224       11.5832412608       18.8050492385
  O        18.9810322039        5.1992383756        3.6820836900
  O        10.1878218291        5.4157764215        0.7021821874
  O        19.6423354158       20.0820195962       13.2485670741
  O        18.6369821506       15.1089042793       18.8168062012
  O         5.7584129726        1.4832862598        5.1710182677
  O        13.9278250771        1.3334595798       17.4372154407
  O        16.2740516869       18.6627927365        0.8212581762
  O         7.7894014525        9.2842449865        2.9659908882
  O         6.2310960616       18.5420806326        3.9517695018
  O        16.4766994824        4.2380938290        4.2292101017
  O        18.8541242066       12.1112863234       15.2036276865
  O        11.7382093986       13.8406908807       17.4167823241
  O         4.4595724893       12.8473358255       16.8338521880
  O        20.1011542563        2.2810061457        1.4489541022
  O        13.0020643705       17.1853697281       -0.4858319157
  O         1.7855982666        4.1780243218        9.8020163647
  O        20.2917672424       10.4754006362        0.5301233726
  O         7.2082519573       18.5911273056       14.6104292217
  O         1.6508901878       13.3653298158       14.1482114008
  O         4.0934511520        4.7711477113       18.5730602270
  O         1.2842969935        8.4131893581       15.3128507226
  O         6.4338267424       16.5160757956        2.1058645387
  O        14.6255778032        5.4584426581       19.5474494010
  O         2.4717468174        3.7749593249       14.7938495920
  O        18.2251306179        2.7154128274       14.3740425017
  O        19.6212729100       15.1186976260        8.8538094496
  O         4.4392516605       17.8321074511        9.6119372890
  O         1.1253482738       18.1081838765       15.7561560180
  O        17.8310032435       10.1520059805       18.8384995986
  O        16.2710076758       14.0631481189       16.0889025000
  O         5.7264376222        3.3764413893        0.6868787012
  O        18.8086594749       17.3844771103       17.7363679648
  O        17.8245097219       18.2444449756       15.7392604754
  O         1.4910722553       16.6641701498       -0.5091872928
  O        10.2145265427        1.5366844586       14.5501040861
  O         4.1791450567       17.1489600008       12.1067279689
  O        18.1980684282        9.5353670395       14.6018789390
  O        20.0081087675       10.0099170288       17.2553951435
  O        15.0592529050       18.9599510961        9.4914791324
  O        18.6149369283        9.7864524604       10.8953985642
  O         7.4461729643        1.9221302124       14.8394577539
  O        15.9013026881       17.6917308110       13.9839493090
  O         3.9578518311        6.2606340733        1.2409251371
  O         3.5102425126        2.6102874570       12.5039032369
  O         8.0349127559        1.3139664751        9.7908897553
  O         3.2283466856       14.7688589059       18.0935876685
  O         5.8208023369       20.3295907112       16.4153463578
  O        14.8338224801       16.4366552576        1.3142992258
  O        16.7010605756       15.6836272254        6.9603264106
  O        10.6250290974        1.5768122091        3.5535089735
  O         2.0802344328       16.6445684303        7.4629511898
  O         4.2960824805        9.5427599513        4.3049458567
  O         2.8150960884       14.3052996196        3.4323753743
  O        12.9969875733       14.7386869796        0.7372709079
  O         1.8856309462        6.1790059093       18.6757147019
  O        12.5568587406       17.0969008857        3.8316919687
  O         3.2610693445        9.1588356747        0.2232035175
  O         4.1269139002        5.1989244239       13.2026262253
  O         2.4639193979        1.6437979590        9.1430457083
  O        16.1392197595        4.2708225767       13.8680362138
  O         7.3334346448        1.4967050129        0.1287011509
  O         9.0008637129       16.3731553017       -0.0092550787
  O         4.8041767968       12.5854106389        2.4617599225
  O        16.3616558919       18.2352345835        6.6478479831
  O         5.5995762661       18.5993941309        6.5766922870
  O        16.1444463266        3.8319109562        7.3140029675
  O        12.2377696448       19.7969133790       15.6869970387
  O         7.8650563522       18.7482900450        1.7542736863
  O        19.2779060956       15.3795686272       13.0358896412
  O        16.8138313558        1.2668421768        7.5572281429
  O        18.2061558175        2.4069125507       11.8282884826
  O         1.9517698301        4.3397353842        2.5640410635
  O         2.2286929333       11.9895038513        2.1289292764
  O         1.8620574978       10.0613478715       10.9138423516
  O         1.9353546486        6.4736514194        3.9258722766
  O        11.4501014047        1.1736264400       17.8907444563
  O         5.1771123966        1.0441255851       13.8575695133
  O         8.2145974195        3.7069921285        1.4494292181
  O        11.4578759283       13.5790125091       14.7332472096
  O         7.2886091968       -0.4986253666       11.3306402979
  O        19.2780233342        2.2470537957        9.4254315039
  O         4.2480223490        7.2575226183       18.1105351991
  O         6.6646461790        2.0345742856        2.7606384787
  O        10.3729459263       18.2292925074       14.6125077744
  O         4.3165892639        2.3415609966       17.9328476994
  O        11.9673808005       19.4909028269       13.0276469596
  O         8.8207131019       16.1977944525       14.8571353603
  O         2.8384178105        1.8376631095        3.1223284880
  O         4.0389845846       16.9224897148        0.1008466164
  O        18.8509933124       18.3271023322        3.5653212182
  O         7.3424112006       13.1853757046        1.4507407211
  O        17.6275946306        3.6112742246        1.9413270535
  O        15.1558414075        1.6096060473        1.1889503319
  O         1.2090097593       19.5975588401        4.5515940722
  O        19.9694428081        6.5935242902        1.6432316312
  O         8.4292101781        1.8064690585        4.9206699894
  O         9.0047718150        3.8099653388       13.7891599998
  O        21.1830206788       14.0885006849       11.5590616473
  O        13.0253584618        2.8313051818        3.1764970829
  O        14.7705804748       18.4128871838        3.0220927989
  O         2.6294952821       12.3625650081       18.6932136016
  O        16.8673775755       16.7884302821        2.7418574891
  O        17.7344335154       19.6978316689       10.2538449024
  O        14.6455053412       15.0218898868       18.2783636781
  O         8.7462924340        1.5380305923       12.4038300275
  O        15.1170030444        7.2498688635       16.2606934093
  O        16.8168138021       10.8824745116       16.5301780200
  O        16.5198840054       20.6145551451       18.1857914518
  O         1.1749466351        3.4136134958        7.3609052428
  O        16.9781469069       20.0670132794       13.2292730873
  O        15.7976415231        2.2524389914       15.7078012089
  O        10.6663485412        0.9851504756        6.1824512361
  O        12.2994499594        3.2286627934       16.1370611022
  O        16.4628629495       17.8404735169       11.4373871597
  O        17.9293518186        1.2879609816        0.7428898126
  O         1.6674684439        9.8372650720        4.6446418455
  O        20.0041400524       13.2529448163        0.5553622341
  O         3.3697857451       11.9766544638        4.6001335685
  O         9.1827823191        7.6312496468        1.3667989430
  O        19.2600576665        5.7424228028       10.8466532510
  O        12.7997040291       19.9696226863       10.4808137593
  O        19.3926581975       20.1019105331       17.0375899186
 Na        19.4658065652       13.4100879988        2.9295203344
 Na        11.6941168583        4.5874549049        4.2771174631
 Na        15.0005158663        9.5525268874       17.8418755416
 Na         6.2054884672       16.7566216002       11.0135133086
 Na         4.7834946058        8.3482481969        6.1826249903
 Na        16.7053114044       14.2873365489       13.1929746305
 Na         1.8049975548        1.3642971180       11.4665770132
 Na        18.1244654339       13.5393328214        7.6950999257
 Na        17.7941837093       10.4949380787        8.5543330650
 Na         7.7759850058       17.3453080699        5.2898849713
 Na        10.7257050566        4.6504825913       15.1787831366
 Na         1.7632701021        9.9672781251        8.6158378687
 Na         6.3881683820        6.0879203406       -0.0843263400
 Na        10.2243153852       18.2303650730        2.2061271131
 Na        13.1801354638       17.5629736295       16.4135523688
 Na        10.3158929995        0.8569337381        9.2126697887
 Na         8.2004412711        5.3300445152        3.4783420885
 Na        18.4905256196       14.2069640635       16.2369605974
 Na        13.7744464638        3.6311347787       14.4036257586
 Na         5.8805261215       10.6214151574        3.4955138737
 Na        16.2477830301       11.3714229742        1.6295586386
 Na         1.0114524235       12.9962386784        9.6386307299
 Na         6.5401859596       18.6374174827        8.8261983725
 Na        14.0405047852        3.6292283186        0.9925831850
 Na        18.5484676153       15.8292572970       10.7338105438
 Na         4.3704278079       16.8556125731        7.5127464558
 Na        16.0977911905        7.1466878879        4.8269945020
 Na         4.5895789226        6.8592643314       14.7041604567
 Na        12.8386678196        6.5993026764       18.9779957297
 Na        20.0389929615       19.5915594482        0.3306297163
 Na        13.4088526901       19.1586449613       19.7206549157
 Na        11.2531389768       17.3850827476        5.7491211020
 Na         2.2813616326        5.9782716516        8.2497031212
 Na         8.7228975564        9.7959727209        7.5056782918
 Na         9.2713062312       12.8417768045        5.6520678564
 Na         2.2880900621       13.0420732652        6.5962000635
 Na         4.0536160980       13.9993712597       15.1247137920
 Na         7.5392964837       12.3877818069       10.8350042628
 Na        16.8770420816        5.7644553996        0.5365300106
 Na        20.7122267835       18.6876555229        8.2202239309
 Na        19.8298556076        5.0423189817       14.9235144103
 Na         4.4614075782       15.3380856149        1.7159545472
 Na        11.1234076848       15.4742846601       -0.5428275197
 Na         2.2132682779       15.8522020691        9.6794846268
 Na         1.3680963674        1.7809917096       15.3175892968
 Na        15.6311400509        2.0884619102        3.4399362129
 Na        18.0735209673        4.7300828267       12.5102710790
 Na        13.2676525154       12.5794026503       19.0218599670
 Na         4.8974858857        4.6179194496        3.0807136366
 Na        14.8734119842        3.2912779587        5.3571952127
 Na        16.0563406755       14.5609677294        2.3628636594
 Na        16.3079074569        7.0267442896       14.1911383137
 Na        15.0562661510        4.9652727356       17.2993182915
 Na        20.1215882376        7.9522727621        5.6552340186
 Na         4.2798261185        4.1773468528       16.1036816092
 Na        20.1167946180       17.7605250233       13.2003712218
 Na         2.9698337579       11.9743260707       11.8748573093
 Na        17.4360977125        6.5010931765       16.7852526151
 Na         6.6555193251        4.5935688717       13.5169271923
 Na        18.5382950152        2.8695397958       17.8907238134
 Na         4.3014701918        1.5375157801        7.8772646755
 Na         7.1482511534        2.9475336921       17.1980625715
 Na        10.8633504742        3.4201790632       11.6375077481
 Na         4.7294184040        5.3871882301       10.9979898641
 Na         6.7654821788       14.0856802523       17.8666053795
 Na         8.8315050784       18.0501142911       12.7672808290
 Na         5.3978906204       11.0335917288       15.9312571357
 Na        10.1578132347       12.1661706339       17.1284283513
 Na        14.5668174891        6.5831761241        2.0962230820
 Na         8.7643621368        9.8243185173       15.7348954839
 Na         4.5057982771        7.6325268289        2.7695707495
 Na         2.0932971090        9.1524329968        2.0843776709
 Na        18.0350503013       15.1347430007        5.0419068359
 Na         8.6922512835       11.4934014028        2.3427315426
 Na        14.6605202465       12.3917588087       15.2550192542
 Na        15.0604369640        3.4796953118       11.7736404232
 Na         1.6509748675       15.8990441223        4.3748280968
 Na        18.1606031664        3.9792997126        5.9192372647
 Si        16.0485186257       18.8469428096       12.7526556171
 Si         8.3559809670       17.0564388827       18.0694682210
 Si        18.3493404938        1.5405223686       13.2044363481
 Si        10.4808117574        6.7480225671        1.7591632046
 Si        10.6910051914        1.7230015149       -0.1488945413
 Si         3.0677109345        6.0669932081        5.1732807366
 Si        19.8019447042        6.6183000092       -0.0475399960
 Si         7.6174157507        8.0848451975        1.9317397746
 Si         2.7093959824       18.2394643560       15.9429376663
 Si         3.4426297462        6.1709233622       -0.2116619686
 Si        19.0875529829       18.6142109350       16.6072832365
 Si        16.7233467888       19.7903487298        6.2165461214
 Si        17.0782805014       11.4303541814       18.0897632954
 Si        18.5099894084        2.2521176917        1.9602352695
 Si        20.0915341670       15.8040641607        7.4335280816
 Si        19.2983874745       16.6601097602       -0.3484694344
 Si         9.0918441198        4.3834308418        0.1645868526
 Si        19.3482673757        8.2545278887       14.2907869242
 Si         4.0853625578       18.5006255197        0.5737024180
 Si        15.1697294961       15.0707370703       16.6286737623
 Si        15.7125118110       17.6370501855        1.9522527588
 Si        17.5653769407       11.0219270208       15.0258965272
 Si         3.8309741792       16.6878104056       13.6175901818
 Si        20.3675261086        5.6465191606        2.9223128157
 Si        16.0179225458        2.5664986571        8.2508374016
 Si         7.0211196623        2.5840896047        1.2890544018
 Si         1.4286183252        5.3711185082       10.9357110954
 Si        12.3325059020        0.9949774139        6.3378175202
 Si        18.0658727628        1.9293098011       10.2998991245
 Si        19.3955974621        9.6868078014       18.7308867103
 Si         9.8183377354        0.8596517963        4.7549655067
 Si        13.8764029334       15.9234413440        0.0577574410
 Si         1.8383503067        9.7062357217       16.1541944483
 Si         7.5715890296        1.0394067640       11.3090749767
 Si        16.5722737552       18.5411002110        9.9794603716
 Si        19.9125981518        9.9200022217       11.8406622210
 Si        13.7711343722       19.9591410417        9.1146202103
 Si         3.1077949338       10.3681766021        5.0772691607
 Si         4.2815364959        3.3138727531       -0.0869435531
 Si        16.2371891445       17.9239378235       15.5884098853
 Si         5.9158748490       12.4748873321        1.2697337109
 Si        15.4876494018       20.5891313052       16.9145905859
 Si         4.7209882451        1.5061043923       12.3428849108
 Si         2.9410740540       16.3156769084       18.3593126614
 Si         2.6290667177        1.0115568525        4.5329321528
 Si        12.4753273391        1.7402441001       16.6933875050
 Si        10.0498717431       16.8781609941       15.6006170108
 Si        17.2523461300       17.1313667379        7.3360601741
 Si        18.4423349296       13.6633393055        0.1378815000
 Si         8.8092680809        2.2272688572       13.9250433327
 Si        17.3876273075        4.9510754090        3.1416465959
 Si         6.3876075016       19.9709119116       14.9052043004
 Si        11.1956403615       19.6093955544       14.4531753556
 Si         6.9116822447        2.3136044601        4.3857227567
 Si         3.5853266956       18.2492200226       10.9236871055
 Si         8.1592573103       19.4289104822        0.3115505478
 Si        13.1132237071       20.2667974118       12.1154943873
 Si         5.3072221178       19.2850764794        5.1560846215
 Si         0.8653752910       11.9175364865       14.3170165038
 Si         1.3223168082       14.7075503347       12.9437640196
 Si         3.2918066017       12.7860514851        3.1550717459
 Si        13.2384622096       18.5679609763        3.7008303214
 Si        16.8851511207        3.4372452886       15.1032869376
 Si         4.4796819868       20.1951582061       17.3302722484
 Si         1.4144474359        2.8204631522        8.9004110234
 Si         3.9778204401        8.8821933572       18.2828676520
 Si         6.4492035032       18.1341344078        2.3628286771
 Si         2.0999479213        2.8032679235        2.0860648145
 Si         1.6074986882       11.9523871194        0.5891251471
 Si        16.3201028422        0.8805352870        0.4734677860
 Si        18.5532381174       17.0735127093        2.6273368934
 Si        12.0618656554       14.4540997004       15.9867798903
 Si         3.0207473804        4.0140792335       13.2892853500
 Si         6.6460665874        9.9066369788       -0.2824968811
 Si         1.7985179563        3.1825392246        5.9073362575
 Si        11.9848842795        1.7595135675        2.6204602413
 Si        19.0027814854       19.7220892556        4.3679150022
 Si         3.9232337300       13.2783527533       18.2161136145
 Se         4.7175836558        9.4692133475       13.5133355138
 Se         7.8681832855        7.2792362613        6.6900770208
 Se         5.1939926746        4.2250910543        8.3377156612
 Se         7.8745766245        6.4546132749       11.4544155981
 Se        10.1230737587        4.1362183618        9.0320503642
 Se        13.9284750708        4.9918386238        9.7660900081
 Se         4.6396070932       13.1861167270        9.5802673414
 Se         6.9942217356       11.3540231375        6.2811795319
 Se         5.3920934843        8.6911557015        9.4188720487
 Se         9.5234885446       10.1698548862       12.7734678532
 Se        11.1682707971        9.9600523086        5.0198012234
 Se        11.4219758037        8.3477216337        9.2952306189
 Se        12.1275761787        6.3885082864       13.4154416785
 Se        10.1311065021        7.6417189600       16.6677608528
 Se        13.5679571597        6.1001527420        5.9898280481
 Se        15.7603082293        8.2077784413       11.7352716162
 Se         9.8945452488       14.8106314204        3.6619045883
 Se         7.0849215068       15.9192735946        7.7653877239
 Se         9.2078007125       14.6501379117       11.7500571555
 Se        11.1096382099       10.9756601829        0.7018096690
 Se         9.9665241184       12.3067326071        8.5766734287
 Se        13.0692839040       11.8772194314       11.7466045289
 Se         7.7546971610       12.4260568689       15.6402015254
 Se        14.8371140771        9.3417107969        3.2929726452
 Se        14.5520546639       10.2625342344        7.5783602011
 Se        16.8843294898       12.9259855664       10.5329394359
 Se        12.6760400771       10.5639457106       16.1680165361
 Se        17.7888137953        7.2898611663        7.3796558042
 Se        10.3564338285       17.4264541817        8.5948536083
 Se        13.5573002884       15.9434816579       12.1028031431
 Se        14.1200954465       13.6388200048        4.2234803450
 Se        13.0767064172       14.6215963652        8.1348384073
 Se        17.4484924081       12.3165335718        4.6791771601
 Cd         6.0254942706        5.1874496524        6.2030061902
 Cd         9.2345091750        6.7048548756        8.8385627387
 Cd         3.4241028988        8.3897363961       11.3016449496
 Cd         7.8947985507        6.1660977890       16.5990120799
 Cd        12.3716104386        4.3425639331        7.6794384973
 Cd         7.5792062912        3.4893535815        9.0185358993
 Cd         4.7999543060       10.9701457840        8.1777427070
 Cd         6.3392460404       13.5718232351        7.1849755513
 Cd         6.5981887985        8.7230393542       11.8705603228
 Cd        10.0174599953        9.1613663070       18.8122687857
 Cd         9.4047338917        8.1760594620        4.4738713300
 Cd        12.7338430503        8.4699226162        6.8499913675
 Cd         9.9071413551        7.6678926318       12.6985902022
 Cd        13.2172544812        7.7799621031       15.5019217680
 Cd        15.5525304773        6.0629163155        7.9840037243
 Cd        13.2052389868        7.2091983462       10.8973932510
 Cd         9.4275139333       15.0308753570        8.7565589417
 Cd         8.8411209176       14.0980583737       14.1746834830
 Cd         6.4392605821       16.7230745670       15.4647216972
 Cd         8.2668095059       15.2956768521        1.8264147804
 Cd        12.5717774414       12.0810984447        7.6508742874
 Cd        11.0136113717       10.6614781048       10.3877811158
 Cd        11.5426663385       11.2954905773       13.9691830834
 Cd        12.3943506768        9.4824285752        2.5036266201
 Cd        15.0572224775       11.2236908585        5.1212672816
 Cd        14.3444402486       13.8146272970       10.3818127466
 Cd        16.4520045419       10.5917248520       11.8003018564
 Cd        18.1378438281        7.5623209974       10.2584649887
 Cd        12.2767141236       15.0016932495        2.7891994057
 Cd        12.0169272135       16.7812978698       10.3191910114
 Cd        14.7532947461       15.0546127653        6.1934935612
 Cd        11.6254801259       14.1309381565       12.4701713802
 Cd        19.4558569785       11.1021921283        5.7019505751
