417
 i =     8700, time =    17400.000, E =     -8967.2177525219
  O        14.4615372362        2.1541140609        8.4093819299
  O        15.7860313709        1.0797737236        5.1487209757
  O         9.9710318133       17.0743732155       16.9139325756
  O         5.9541699260       10.9694030473        0.7284061158
  O         2.6819832034        6.2577192709       10.2531297020
  O         2.0375017429        4.6814683450       12.3245174712
  O        16.4099684779        6.1234272608        2.4488281409
  O         5.1888882616       15.7857417881       14.2857739321
  O        15.3166967773       19.0671878201       16.2449060015
  O        12.8868163817        2.5449043994        5.9211931588
  O        11.6234842185        2.4873844182        0.7834249346
  O        13.0481348133       19.3935497288        4.6671420529
  O        11.7588658674        7.4426889024        1.4131068795
  O         5.0668992086       18.5865495812       -1.1512119082
  O         6.7465095754        3.8430252794        4.1566540824
  O         2.8482376923        2.0808655656        5.5883656041
  O        19.1769743870       16.1833810014        3.3033157525
  O        14.5095175940       19.9883373464       12.3289657230
  O        18.2563927052       21.1969321392        3.1851271942
  O         6.5622937296        5.1429727412       15.2977642750
  O         1.9751997324       17.9109863652       11.0081374203
  O        16.5434291230        2.6574507539        9.7425659562
  O        19.5755170412       11.5391913909        7.6399534903
  O         2.9269689278        3.0699798291        0.5112360662
  O         5.4138411789        9.5692672545       18.0240320578
  O        17.5908887331       13.1919786674        1.5404968614
  O         2.9883524196       10.3216371899        6.6143623901
  O        18.4712456119       19.8619235073        5.4754248377
  O         0.8378933647        8.5671805158       12.6784675333
  O        17.8807957174       12.4959551048       18.2083421888
  O        15.5738025815       16.6145630659       15.9246269328
  O         4.3776097776        6.1363089160        4.4188507534
  O        13.0073503172       19.5809241210        7.3819923412
  O         4.0143900974       19.5591630871       11.3961050031
  O         6.7685911175        8.6185845282        0.7098177255
  O         3.9574909775       19.3865945391        4.3784993848
  O         0.5286922000       11.2820972581       12.7548943003
  O         9.5955949976       18.8652315958        3.9276527841
  O        12.4833132309       19.7682179157        2.1176780661
  O        18.8585389067        6.7396352547       14.1602377586
  O        10.0879285911        6.3338158285        3.1633657906
  O         2.3781778836        6.9667464007        6.1262977563
  O         9.6199986257       20.1553830138        0.2982298026
  O         2.7097755268       18.9044294781        0.2516871312
  O         0.5533066886       14.5544547838        5.9847787630
  O        19.5336957662        8.1383286553       -0.6363092124
  O         3.0559469843        9.3989560173       16.9455711775
  O         2.0514699024        4.6302324045        4.9580671907
  O         2.6873774839       15.4034951154       13.7429933038
  O         3.2619823212       19.5023320178       16.4575956633
  O         1.8285072230       10.9225013494       15.0662278941
  O        17.1300294980        4.3947588869       16.0097837459
  O        18.8257194943        5.6868988307       -1.2256373942
  O         4.8108814552       13.1969872874       19.2581971770
  O         3.0135155392       16.8317897707       16.9138313410
  O         7.8600376103        5.2497944888       18.3509530747
  O        16.8202289355       17.2095886745        8.9618162569
  O         7.0652814897        6.7957114456        2.5667116039
  O        19.0315952535       17.4492352674        0.8107263231
  O         8.1119133080       18.4916695013       18.3731576543
  O        16.4148179964       11.3081657135       13.8113846281
  O        18.9276673434       16.7314761378        7.5800454404
  O        19.8543067947        2.5397044369        4.7704041918
  O        12.8001905304        2.6319640652       11.9627411154
  O         4.9911085894       18.5762454693        1.4974291659
  O         7.3158492702       16.0998578681       17.2659920123
  O         3.4119574654       17.8085739583       14.4467022781
  O         7.9179394957       10.2892627090       18.0988195713
  O        13.8602036841       14.4924702561       15.6233874853
  O         6.1229416562        1.8607513947       11.4201838393
  O        11.6885129628       15.8772973310       15.5206810740
  O         9.8403916335        3.3354363955       -0.8863899448
  O        15.4726156094       11.3173128569       18.7615144351
  O        18.8542810205        5.5289403287        3.5201568130
  O        10.1602960000        5.3209252958        0.6564326598
  O        19.8766372200       20.1293031971       13.3256280747
  O        18.2603805468       15.0868568368       19.0272717107
  O         6.1249772742        1.3782169539        5.1341593411
  O        13.9012136315        1.6423574083       17.1769924436
  O        16.1129905708       18.8631193351        0.2248347206
  O         7.8691221519        9.3577424079        3.0222062457
  O         6.4020973800       18.4386016900        3.8350303003
  O        16.5579792861        4.0586990192        4.1757680552
  O        18.6626449699       11.9813127251       14.9638782401
  O        11.7554689393       13.5826470656       17.0225161325
  O         4.3780613880       12.5835370922       16.6904305657
  O        20.0470256176        2.2249644454        1.5213514607
  O        13.1470202337       17.1965608594       -0.8619523832
  O         1.7323892974        3.9067230953        9.7570777435
  O        20.0625105417       10.5630281367        0.5409973409
  O         7.0451953017       18.6161340431       14.1121199339
  O         1.3001942125       13.3967677044       14.3122098756
  O         4.0867392536        4.4820333207       18.0402486679
  O         1.0659806665        8.3791846717       15.4600069398
  O         6.5391391412       16.4197562624        2.1772838270
  O        14.5315746954        5.9125331176       18.9559786524
  O         2.9384070462        3.5663626679       14.6009885444
  O        18.1553705894        2.7385590711       14.1568331748
  O        20.6146483696       14.9941382704        8.5364577786
  O         4.2455435808       17.5966952568        9.4918502292
  O         1.0589509977       18.1351785356       15.7636440370
  O        17.7439840766        9.9921380705       18.6906885340
  O        16.3891452644       14.0943924396       15.8877803111
  O         5.4748172974        3.3251681861        0.6674364360
  O        18.9513608207       17.2319480279       17.6144646674
  O        17.8455543063       18.2083177110       15.4677197255
  O         1.3350098112       15.8052666009       -0.4152827728
  O         9.8919179909        0.8915893960       14.1015143404
  O         4.1976802712       16.8832457183       12.0687291525
  O        18.2059168897        9.3302838749       14.4898764664
  O        19.8538098685       10.3150337337       17.1999771466
  O        15.0962619760       19.0304966225        8.9639233064
  O        18.5967069873        9.6285201355       10.8638108030
  O         7.4593279930        1.8298900062       14.4893080659
  O        15.7534427297       18.0344096258       13.8152098044
  O         4.2507199493        5.9114069452        0.8227583540
  O         3.5768020715        2.6040271446       12.0109120673
  O         7.8419620683        1.3811989509        9.3536450392
  O         3.1957345838       14.4503413037       17.8395907501
  O         5.8280374688       20.0502517807       16.1601349788
  O        15.0000027849       16.5377135249        0.9415556790
  O        16.6966085536       15.5178073440        6.8194003792
  O        10.7599626436        1.9164900903        3.2972659644
  O         2.0711289619       16.7658864280        6.5741872743
  O         3.8859743108        9.4368976072        4.1438131293
  O         2.7766442699       14.2873679892        3.2979009412
  O        13.0860122701       14.7990226185        0.4327586266
  O         2.0347490203        6.1442790464       18.3116930454
  O        12.3969407924       17.3384221332        3.0977386788
  O         3.3207441699        8.7277431280        0.2769346379
  O         4.7690418690        4.7915412963       13.0569348824
  O         2.1312591592        1.5573331141        8.5593109966
  O        16.0553507319        4.2855225704       13.5554599846
  O         7.2312472739        1.4563639520       -0.1499419354
  O         9.1839298843       16.2837795546       -0.1228874881
  O         4.8525542671       12.6694040475        2.5427349989
  O        16.7679602870       18.1885721283        6.5349670628
  O         5.5898355008       18.5462829265        6.3818494829
  O        16.2425930924        3.8289312235        7.3164656163
  O        12.3762994475       20.4778198853       15.1087140536
  O         7.7599415966       18.6769758455        1.5495467281
  O        19.5975743660       15.4824082189       12.7643108404
  O        16.8366847960        1.2352591494        7.4759443760
  O        18.5055925189        2.2510051415       11.5620432045
  O         1.7733853568        4.4047107982        2.3443914217
  O         2.4673433758       11.8903154770        1.8522055623
  O         1.8775950464       10.1864229095       10.7153380651
  O         1.8195146849        6.7350750363        3.5408482276
  O        11.4189033930        1.4636036290       17.7323737102
  O         5.1126936311        1.1419587836       13.6896000316
  O         8.1363241111        3.6771612290        1.0962907403
  O        11.7490850030       13.5742932218       14.2520891810
  O         7.3392563822       -0.6482814184       10.9390012333
  O        19.0519241366        2.4034679473        9.0374310102
  O         4.1975955577        7.1788272492       17.6868620088
  O         6.7767979827        1.8991130512        2.5852265495
  O        11.1863040438       18.1435484196       14.8110986139
  O         4.4342542575        1.9344325651       18.0006164578
  O        11.9971494815       19.4849111548       12.6520508034
  O         9.2149369972       16.4125127855       14.3436749459
  O         3.0498646429        2.0923095977        2.9629998617
  O         4.0011843588       16.4674276780       -0.0362670367
  O        18.8463691710       18.9258612560        2.9900411447
  O         7.1648858090       13.2719504756        1.0484824108
  O        17.7917845701        4.0026743847        1.7669301871
  O        15.1387053786        1.8306674155        0.7781460699
  O         1.4676784467       19.6417111354        4.2234908880
  O        19.7861914819        6.4039132236        1.1893970153
  O         8.6097611799        2.0204095109        4.6744745181
  O         9.3970701747        3.5443135186       13.6691411628
  O        21.2798416686       13.8102438111       11.6074964752
  O        13.2288753504        3.0049983567        2.8320847123
  O        14.7782896592       18.7607001739        2.7223659259
  O         2.4908883362       11.9238235277       18.5029384593
  O        16.8634352698       17.1916234516        2.4362979369
  O        17.7584880261       19.6117500915        9.9346278846
  O        14.9873208911       15.1773488700       17.9860893761
  O         8.6812394154        1.5807947674       11.8656976394
  O        15.4541300111        7.3284632169       16.0180484101
  O        16.7778077802       10.8748680194       16.3880072959
  O        16.4380195870       20.9090757646       17.7728602388
  O         1.0193625793        3.6010311542        7.1366407293
  O        17.0461055700       20.0880089152       12.9920941080
  O        15.7476891079        2.1524372220       15.2652810102
  O        10.8197951956        0.8958827094        5.8539955872
  O        12.2439248436        3.6259755844       16.1110417691
  O        16.0705027043       18.1653609881       11.2470761167
  O        17.8440548817        1.5719313579        0.4976676659
  O         1.3024425378        9.9472527692        4.4630361254
  O        19.9276301810       13.2396958239        0.3531585689
  O         3.0245196188       11.9617597187        4.5281520022
  O         9.2069561340        7.8471305444        1.1837726297
  O        19.4830328555        5.6938028792       10.8089475905
  O        12.9677691977       19.9080458940       10.1361090550
  O        19.1071926988       19.8994458278       17.2337294503
 Na        19.6263799132       13.9124630854        3.1812369467
 Na        12.0178510661        4.3166751276        4.1918681247
 Na        15.0283365964        8.1450361684       18.0596907501
 Na         6.3856751814       16.8663224477       10.3617377193
 Na         4.4004376448        8.3302524998        6.1879070884
 Na        17.4983252874       14.0916603028       13.0868727820
 Na         1.6651766694        0.7942016711       11.0662014746
 Na        18.3344939632       13.4561274457        7.3257489855
 Na        17.6208250765       10.3948107672        8.5989639622
 Na         8.0079987274       17.0323638021        4.5062364545
 Na        10.6960276939        4.8376316380       15.0002999284
 Na         1.4610625207        9.7421792470        8.0273677796
 Na         6.3445213927        6.1277634315        0.1046920223
 Na        10.2593350316       17.9978511852        2.1004945596
 Na        13.3148933272       17.9760056124       16.2943024625
 Na        10.3052250700        0.9086791717        8.8540235164
 Na         8.4919604337        4.9254041030        3.2362525876
 Na        18.7217724395       14.0842436622       16.4012850583
 Na        13.6005751939        3.6860602496       14.0477575165
 Na         5.7157857905       10.4890170535        3.4080431585
 Na        16.2171806241       11.1592026746        1.7579486143
 Na         0.7568055282       12.9832096486        9.8323510246
 Na         7.0023772001       18.8313504589        8.2694144006
 Na        14.0269660696        3.7780437682        0.6334599454
 Na        19.8155648322       16.3695541296       10.3635967939
 Na         4.1231734488       16.8832301849        7.2409403458
 Na        15.8808508670        7.0477336281        4.5074458446
 Na         4.8726085627        6.6519870408       14.5478457815
 Na        12.3435855024        6.6157602994       18.6041455559
 Na        20.0038369974       19.4027976013        0.3219953595
 Na        13.4648751665       19.2976468099       18.9372945048
 Na        11.2640039850       17.1653583327        5.1376438099
 Na         2.6559667284        5.9500040992        8.0729677282
 Na         8.7550908144        9.9832848169        7.3262942651
 Na        11.1850846511       12.9184450501        5.4599789363
 Na         2.3145839160       12.7877968013        6.7398707790
 Na         3.8430294596       14.0402171806       15.3341098663
 Na         7.5505318489       12.3888104981       10.8314342347
 Na        16.8297362387        5.3411763118        0.0833634617
 Na        20.3422383685       18.9122441471        6.9570080219
 Na        20.3944868640        5.9065519450       15.9201523453
 Na         4.5759241437       15.2229999985        1.9009741418
 Na        11.3661356167       15.5012470104       -1.0674444909
 Na         3.1484407545       14.9692223593        9.9019665641
 Na         2.0105683348        1.6770833158       15.2790669143
 Na        15.3033146832        2.0554875483        3.0373601066
 Na        18.8399881989        4.9857098807       12.8499502912
 Na        13.4913461452       12.7141662038       18.7366492472
 Na         4.7084925829        4.5739487827        2.6145780403
 Na        14.9109382119        3.2133654869        5.4579862699
 Na        16.0988825567       14.7632605040        2.0886500671
 Na        16.1865028768        6.6734571996       13.8568723653
 Na        14.7604261195        5.1487782422       16.9232061023
 Na        19.6874629760        7.8795879515        5.0105911829
 Na         4.9029651412        3.7925825312       15.7692725067
 Na        20.1256227722       17.7483751974       13.1743153567
 Na         3.2968567942       11.9828125212       11.8575489197
 Na        17.5380511416        6.6650229959       16.3472887935
 Na         7.0045975393        4.5328273935       13.1393990602
 Na        18.6000981798        2.8968318787       17.2519198850
 Na         4.2173030805        1.6777373797        7.8894013932
 Na         8.0397491228        2.9684581617       16.4295475129
 Na        10.9379505763        4.0068468336       11.5836203036
 Na         4.6967439456        5.4345195099       10.6300678921
 Na         6.4807139352       14.0818627073       17.6109602450
 Na         8.7270833398       17.9486357873       12.5740954594
 Na         5.0336855291       10.5900262443       15.8651275510
 Na        10.1506109020       12.1604489822       17.4730234253
 Na        14.3146446131        6.6193820571        1.8949787222
 Na         8.9405256987        9.9532620222       15.3454850790
 Na         4.5956916751        7.5584090814        2.5430249351
 Na         2.0573087864        9.4839919778        2.1610910642
 Na        17.8367149567       15.2639506560        4.9858451982
 Na         8.9084569531       11.4444160658        2.1613060387
 Na        14.8165114124       12.4620344002       15.1945072715
 Na        15.2807095006        3.5534961416       11.3836429111
 Na         1.9651654180       16.1224570517        4.4144344992
 Na        18.1120425714        3.3757555101        5.9193618790
 Si        15.8742016356       19.0602992965       12.5859076203
 Si         8.5993557246       16.9322618435       17.9016166717
 Si        18.5072655807        1.4934823983       13.0942263998
 Si        10.3645166597        6.7356314114        1.6584352405
 Si        10.5586292318        2.0340564282       -0.3402550591
 Si         2.7735304931        6.1375623218        4.8498784908
 Si        19.9079616669        6.5231455877       -0.4668051579
 Si         7.6926899005        8.1591535926        2.0030092444
 Si         2.6844938233       18.0271949104       15.8769743399
 Si         3.6175594103        5.9699970197       -0.6733283695
 Si        19.0690995819       18.4626166801       16.5854955141
 Si        16.8764515941       19.8054777144        6.0511085725
 Si        16.8692862934       11.1792134774       17.9957611980
 Si        18.4589060320        2.5476325048        1.7446507151
 Si        20.3364298404       15.7695321446        7.1354494502
 Si        19.1641295080       16.4209505503       -0.3612024238
 Si         8.9757710024        4.5418719860       -0.1126338009
 Si        19.4087757099        8.2866255831       14.0908597009
 Si         4.0770002915       18.1427309982        0.1525152580
 Si        15.2356717559       15.0379955252       16.4239431703
 Si        15.6581637198       17.9137070550        1.5457691638
 Si        17.4774414735       10.7593915895       14.8839152034
 Si         3.9476495506       16.4567828315       13.5913216267
 Si        20.2267708531        5.7496036064        2.6060856113
 Si        16.0720719969        2.5361590298        8.1195622742
 Si         6.8888691924        2.5986180996        1.0828383558
 Si         1.6384943253        5.1941460293       10.8240147943
 Si        12.4933414377        0.9459375535        5.9855654624
 Si        17.9506321897        1.8740883847       10.1110970826
 Si        19.3358337702        9.7760888166       18.6617996514
 Si         9.8883309406        0.9635647684        4.3931378504
 Si        13.9831610893       15.9494589052       -0.2564918444
 Si         1.6640862306        9.7517977968       16.1997639053
 Si         7.4551620528        0.9561712069       10.8781928701
 Si        16.4967549593       18.5725170571        9.7095772451
 Si        19.9437485425        9.9086961006       11.7075836407
 Si        13.8586680554       20.0417178412        8.7410790344
 Si         2.8148043976       10.3248874447        5.0069378604
 Si         4.2661195849        3.1510289953       -0.4293763565
 Si        16.2373222450       17.9484939365       15.3377696182
 Si         5.7306060162       12.5419836203        1.0307401557
 Si        15.3679214402       20.6689572183       16.5438116905
 Si         4.7055815730        1.4102884751       12.1329858304
 Si         2.8406125945       16.0017688615       18.3007528695
 Si         2.8390146013        1.1228605831        4.2385550757
 Si        12.3889662781        2.0990737629       16.5357837851
 Si        10.4029305661       16.8418990472       15.3913883597
 Si        17.3432623092       16.8992416697        7.4240481422
 Si        18.3139729379       13.4769239278        0.1378636304
 Si         8.8407412517        2.0378255078       13.4763338834
 Si        17.2912716569        4.9670533735        3.1138821590
 Si         6.3518479293       19.9884481282       14.5801722507
 Si        11.3548512925       19.6191144587       14.1495862732
 Si         7.0911217724        2.2716108170        4.1633880883
 Si         3.5761232721       17.9409258315       10.8693978936
 Si         8.1263647045       19.4907676862        0.2395688497
 Si        13.1105392962       20.5005719720       11.7326772613
 Si         5.4917199083       19.2532124378        4.9861024284
 Si         0.7142270770       11.7984497352       14.2784847032
 Si         1.4858477750       14.5311032241       12.9962669093
 Si         3.2157404140       12.7628421998        3.1158171303
 Si        13.2309978663       18.6594188190        3.1863802423
 Si        16.6994204785        3.5400095416       14.7467453308
 Si         4.6501461215       19.8173716773       17.2894423607
 Si         1.2399925539        2.8262628095        8.5961556819
 Si         3.9397597228        8.7889560123       18.2081728103
 Si         6.3520851731       17.9955868944        2.2001087669
 Si         2.1253692343        2.8961088542        1.8913844567
 Si         1.5473387597       11.9738781985        0.4543115794
 Si        16.3207193934        1.1245618625       -0.0247262634
 Si        18.5219662408       17.4401360559        2.5213641020
 Si        12.1465616625       14.2854822290       15.6552462672
 Si         3.4181674711        3.9786145875       13.0396500671
 Si         6.6302515536        9.8746838684       -0.3011079972
 Si         1.6771768682        3.1961788257        5.6051794562
 Si        12.0923142506        1.9920788597        2.3090920098
 Si        19.2978174519       20.2436916811        4.1230501034
 Si         3.7006997980       12.9205150427       18.0853549021
 Se         4.6409670387        9.1344160067       13.3036087854
 Se         7.9616660708        6.9935637305        6.7101902683
 Se         5.4577629735        4.2529734315        7.9871046084
 Se         8.2427673103        6.3208747201       11.3832502718
 Se        10.3327179161        4.0001040742        8.9618202994
 Se        14.0639928197        5.2175197934        9.5539583699
 Se         5.1339955568       13.1715474140        9.6605875709
 Se         6.5840141611       11.6784679745        5.8604880375
 Se         5.5710193685        8.5723256932        9.1491608581
 Se         9.4800888675       10.3810293377       12.6009878337
 Se        11.2178369346        9.9602288799        4.7796481073
 Se        11.4299593164        8.3189771963        9.0826709271
 Se        12.2290511258        6.5609576496       13.0128996715
 Se        10.2650549714        7.4627322522       16.5813990517
 Se        13.4627667592        6.2185232814        5.8672249477
 Se        15.9545476223        7.9913378906       11.3783174535
 Se         9.8464852866       14.9428181538        3.6195382399
 Se         7.5921839834       16.1685629476        7.3159861031
 Se         9.4236395975       14.7827849050       11.5880762965
 Se        11.2026780019       10.9893484120        0.6108988169
 Se         9.9448387353       12.3917048729        8.4401530252
 Se        13.1922947278       11.8671041516       11.3920160573
 Se         7.7542217002       12.4614634899       15.7416748056
 Se        14.8490254607        9.1919702863        3.1266764437
 Se        14.5911289844       10.5884191624        7.5335172505
 Se        17.1000831168       12.7382491321       10.4074241893
 Se        12.5264353723       10.3009943756       15.9196983725
 Se        17.8099248847        7.5882487671        7.4295844292
 Se        10.6609879009       17.5843234305        8.5494442181
 Se        13.9877982832       15.9069765772       11.8437165554
 Se        13.8470369006       13.5928288244        4.0995524948
 Se        13.0435357799       14.8492716055        8.0815064422
 Se        17.3555778713       12.2682402886        4.4453785553
 Cd         6.1742569848        5.4761703247        5.6253972253
 Cd         9.5594913776        6.5374530817        8.8642306073
 Cd         3.4700207809        8.3941872124       10.9532757902
 Cd         7.9242461587        6.3529206950       16.2063891821
 Cd        12.5849773919        4.1003689949        7.4948515229
 Cd         7.7252035204        3.4956062112        8.6554335876
 Cd         4.9933010550       10.9936183345        7.9447396833
 Cd         6.5706858454       13.7697346288        7.3617478343
 Cd         6.5780704421        8.6090269153       11.6834873174
 Cd         9.9327502091        9.1517274433       18.6401887611
 Cd         9.1700365567        8.0152092836        4.5105503331
 Cd        12.5752661420        8.5407277617        6.6739552482
 Cd         9.9502535008        7.8207936231       12.5072398690
 Cd        13.7053163022        7.9949164048       14.9311537335
 Cd        15.5418854897        6.2597433598        7.6628096048
 Cd        13.3774799391        7.4517715797       10.7307735478
 Cd         9.5037023521       15.0637564193        8.8607680149
 Cd         8.8027834949       14.0811632422       14.0749892149
 Cd         6.7593627295       16.7800794983       15.3003916196
 Cd         8.2020346735       15.1095526922        1.6107577235
 Cd        12.9228415636       12.1905010589        8.4820694827
 Cd        10.8109118146       10.7069806151       10.4147364275
 Cd        11.8093632226       11.3247162703       13.7067310101
 Cd        12.3125722950        9.4055424547        2.4167228081
 Cd        15.0078058429       11.2789183407        4.9904908033
 Cd        15.0299055240       14.2126488927       10.0894548204
 Cd        16.3151648094       10.6146345808       11.7664710915
 Cd        18.2873004405        7.4156660644       10.1039688504
 Cd        12.2295118924       15.1032031066        2.5010316642
 Cd        12.5794229960       17.0573604797        9.9348491843
 Cd        14.7497125802       14.9525500212        6.1560753988
 Cd        12.0136252844       14.2684964594       12.0081505107
 Cd        19.1461002172       10.9096583554        5.7253283663
