417
 i =     8800, time =    17600.000, E =     -8967.2417776122
  O        14.5411038596        2.2048002481        8.7462161862
  O        15.8967243498        1.1966896248        5.0240296931
  O         9.9353787336       17.5329290833       16.8038134286
  O         6.1537715567       11.0261769482        0.9514979643
  O         2.5385298341        6.4249982187       10.0703102842
  O         1.9189381025        4.7708714521       12.2215957723
  O        16.9847147757        6.0966687315        2.3463735580
  O         5.1078547610       15.8553477991       14.5589163964
  O        15.4204269459       18.9844423691       16.3692815364
  O        13.0775460249        2.6880702817        6.0023162381
  O        11.6096140190        2.1953319655        0.8037797410
  O        12.9961258802       19.5165771624        4.9154945381
  O        11.9062477314        7.1114043286        1.3600064679
  O         4.9661281920       18.9945219006       -1.0678705348
  O         6.7403631348        3.9695886807        4.3574668872
  O         2.8886688921        1.9023975816        5.6604930744
  O        18.8095318608       15.5560346129        2.9952403648
  O        14.5677450515       20.0329948079       12.3103408801
  O        18.2875320957       20.4547133013        3.1808588194
  O         6.4507599296        5.2899139481       15.5892537728
  O         2.0943724306       17.5366311723       11.0794591649
  O        16.8419793281        2.8572540450        9.5819874572
  O        19.5108873905       11.7956688478        7.8818790443
  O         2.9532560080        2.9724127841        0.4723990961
  O         5.5601747836        9.7888989889       18.0218490754
  O        17.5785409530       13.3823694307        1.2200940867
  O         2.9444698163       10.5787469704        6.7020082247
  O        18.5287197818       19.7530578724        5.6343340429
  O         0.5124021288        8.5318529645       12.6986603758
  O        18.1983980681       12.5741661188       18.0567602127
  O        15.6145863924       16.5086083662       15.9844556700
  O         4.6402029971        6.3670192489        4.6900349332
  O        12.7846108025       19.8423594422        7.5787236937
  O         3.8582629102       19.5886893573       11.5083493179
  O         6.9283927742        8.5665285586        0.4719538069
  O         3.9875900670       19.2285561209        4.4285922559
  O         0.7588200367       11.1138229385       12.6726993681
  O         9.4569636919       18.8503538359        4.3894636208
  O        12.3366797578       19.5568375086        2.3366242811
  O        18.7816976476        6.7185901993       14.3735774690
  O        10.3356940914        6.2088187513        3.3403633765
  O         2.3496677096        7.0739520527        6.1178999200
  O         9.6366993618       20.0089848857        0.1474439827
  O         2.8130570889       19.1227607752        0.6025098889
  O         0.6155333161       15.0974509242        5.9846819139
  O        19.9703181933        8.1626731413       -0.1242722240
  O         3.4622984748        9.3554397851       16.6965486441
  O         2.8284558399        4.5181197538        5.3441000730
  O         2.7390609748       15.4292979073       13.6484305045
  O         3.2031513740       19.6889038023       16.3328178497
  O         2.0981398803       10.6872114145       14.9453885283
  O        17.2033274051        4.1918370003       16.3574798237
  O        18.9039557674        5.7764158727       -1.0349680047
  O         4.9823063854       13.4254851819       19.4358322725
  O         2.9464119844       17.0662786715       16.9613787988
  O         7.8281835895        5.0249921661       18.5043775228
  O        16.8551040076       17.3467948894        8.9601537833
  O         6.9508219626        6.6274184443        2.1420433475
  O        18.7640855191       17.2133909422        0.9244299264
  O         7.9306704047       18.5335747112       18.2638738899
  O        16.6143884833       11.4075571594       13.8148841416
  O        18.9490732222       17.1488891558        7.3836186551
  O        20.0610793565        2.7705523500        4.7395298345
  O        12.9600488846        2.7046833761       12.1607199546
  O         5.1404771995       18.5047262160        1.6018049267
  O         7.4580290470       16.0597041288       17.3012886499
  O         3.2227595858       17.9244613233       14.3987003692
  O         8.1301606742       10.6212095406       18.4123321080
  O        13.7690580932       14.4337291669       15.5986349485
  O         5.9253786779        1.9371111299       11.2292228377
  O        11.7076001048       16.0294252710       15.6094970834
  O         9.6761559718        3.1361343762       -0.8477306996
  O        15.8467170909       11.3584332725       18.7465683005
  O        19.2191591072        5.4618114726        3.5609081873
  O        10.2129802006        5.0431444381        0.9082409434
  O        19.7738401089       20.0951655703       13.1503272772
  O        18.6562861624       15.1183821220       18.5616940498
  O         5.7524551288        1.6346729171        5.0671913625
  O        13.8456442230        1.4645492844       17.2399133109
  O        15.8001974501       18.8801717458        0.5803241515
  O         8.0945089149        9.0240375932        2.8992170900
  O         6.5032637836       18.6934141399        3.9430091717
  O        16.8305450294        4.7170452113        4.5534104171
  O        19.0053572391       11.8837240694       14.9475558273
  O        11.5503069932       13.7075889940       17.0984769697
  O         4.5871437507       12.8707450536       16.8360178223
  O        20.0112513229        2.1206379229        1.3868981565
  O        13.1677418477       17.1784794452       -1.0160609091
  O         1.7005275259        4.0329847488        9.8260861557
  O        20.3977718616       10.6144039616        0.3360043579
  O         7.1490490780       18.6814376583       14.5226143941
  O         1.6494132309       13.1515217657       14.0450459788
  O         4.1244059186        4.6991120265       18.0550079229
  O         1.3861008658        8.1810738047       15.2232019309
  O         6.8465223442       16.4963348402        2.4444142185
  O        14.5710919209        5.9864904649       19.1133309512
  O         2.5865892961        3.9742519118       14.6353955685
  O        18.2693668275        2.6230264461       14.2447133725
  O        20.3751692407       15.0029244698        8.4687497384
  O         4.5347707761       17.5257378440        9.7456015704
  O         1.0923509731       18.2972899804       15.6119306188
  O        18.0457388397        9.9241079381       18.6408154174
  O        16.3912446872       14.0391891503       15.7746485335
  O         5.4612856248        3.4572338452        0.6555510202
  O        18.8060058960       17.5257308710       17.7324310927
  O        17.8060345148       18.2876356093       15.4615268239
  O         1.5162548225       16.3752270333       -0.3069510519
  O        10.0323549815        1.1464841763       14.1081060531
  O         4.4832872791       17.0304122155       12.2045306202
  O        18.3600711038        9.4301739562       14.6439187738
  O        20.3418025927        9.8651428868       17.1670923164
  O        14.9274336088       18.9617657445        9.1447490528
  O        18.5063622180        9.7540966508       10.8520822220
  O         7.5956653917        1.9393696122       14.4521639649
  O        15.5657765658       18.0177321752       13.9097193872
  O         3.9553125650        5.9655341271        1.0106759638
  O         3.5613584879        2.6394938474       12.3827200710
  O         7.8156154697        1.4164330178        9.3619488071
  O         3.1937416270       14.7503751164       18.1471538520
  O         5.9072110433       20.3959345632       16.2277155857
  O        14.9385462672       16.5042740965        0.9692162695
  O        16.7271742724       15.5724836184        6.9271602555
  O        10.5595041597        1.7839758805        3.3348856258
  O         2.1904877799       17.0146371523        6.9382467421
  O         3.8093334348        9.4900066076        4.2762604388
  O         3.0145456579       14.4330597047        3.2070478737
  O        13.0513255846       14.9322370788        0.5164892575
  O         2.0670253268        6.1492810488       18.3888100793
  O        12.3627823233       17.2804069150        3.7362910582
  O         3.3267690008        9.0450524904        0.1888902778
  O         4.5268646614        5.0344782866       12.8985504597
  O         2.5742359075        1.5902480743        8.8265937142
  O        16.1670705582        4.2871206116       13.7353785660
  O         7.0443339664        1.3691759782        0.0315452259
  O         9.3695591886       16.4696097088       -0.1956158567
  O         4.8650678882       12.5472184204        2.5667174953
  O        16.6213224662       18.2256360738        6.4891367652
  O         5.5582347895       18.8045286631        6.5480236979
  O        16.0188772931        3.8264830830        7.1025123022
  O        12.5228416721       20.2019986895       15.1987335000
  O         7.8116294678       18.7946564769        1.5822599575
  O        19.4903459696       15.1283533613       12.9026626821
  O        16.7633603088        1.2486329174        7.5657791397
  O        18.3386193641        2.4578946595       11.6657666347
  O         2.0072163167        4.2534350079        2.4946188528
  O         2.3465921955       12.0168435048        2.0969260266
  O         1.7673919260        9.8599947636       10.6583967582
  O         2.2326459197        6.5450076087        3.6581247409
  O        11.4177901162        1.2929788158       17.6431963283
  O         5.1864536198        1.1182983896       13.7450301462
  O         8.1038141488        3.5682290456        1.3189328491
  O        11.5198329376       13.7001831030       14.3689487665
  O         7.2703571578       -0.4721057040       11.2155209200
  O        19.4333696254        2.0544968504        9.2062516123
  O         4.5345947917        7.2672259082       18.0954871579
  O         6.6471927073        1.9078806551        2.6790632265
  O        11.0258085165       18.1639226901       14.4448677687
  O         4.3688494091        2.1412545618       17.9101697789
  O        11.9037576928       19.6058853977       12.5496799868
  O         9.2675633228       16.1058820762       14.4648475801
  O         2.8856322908        1.7775413328        2.8903784374
  O         4.0631144804       16.8585229517        0.0808255383
  O        18.9825012418       18.1347271842        3.4419158120
  O         7.2265599578       13.4006925808        1.2934707820
  O        17.9186694832        3.5793291096        2.2689260232
  O        14.8577683745        1.8595000227        0.8823944935
  O         1.3983424192       19.4773826670        4.3622633557
  O        20.1989365266        6.1197270803        1.2955150251
  O         8.4693843314        2.0254893755        4.8225438048
  O         9.5241380299        3.6402066022       13.5248747126
  O        21.4259678979       13.8283587063       11.4981687379
  O        13.0844715082        2.7983903244        2.9159295714
  O        14.6031623579       18.5525746653        2.8695962127
  O         2.8892586969       12.1430576150       18.6819383947
  O        16.7570895796       17.2740182411        2.5769205254
  O        17.5087597244       19.7240023654       10.2010807819
  O        14.8552616400       15.0072126112       17.9860623966
  O         8.4777149615        1.7663902670       11.9932685791
  O        14.9479490297        6.9042267173       15.8064644617
  O        16.9937351358       10.8644456150       16.3855670664
  O        16.2747594171       20.6231858842       18.0059319269
  O         1.2832826681        3.3621432678        7.2474290636
  O        17.0021346776       20.0845791529       13.0786306180
  O        15.7384452961        2.1672837342       15.4439778742
  O        10.8744167557        1.1262661005        5.9100172854
  O        12.3264410965        3.3222633895       15.8969396203
  O        16.0200772625       18.0758479883       11.3594705946
  O        17.6467594913        1.5515556073        0.6297537555
  O         1.2351065862       10.0714171894        4.5848072811
  O        20.1287124207       13.3186081125        0.5117909375
  O         3.0313078539       12.0413521452        4.5173396467
  O         9.2681384223        7.3721280898        1.0002871692
  O        19.4167054024        5.9266712527       10.9989420466
  O        12.7590977980       20.1402831988       10.1436976768
  O        19.2536175738       20.1800113498       16.9772209670
 Na        19.7203800281       13.3997227038        2.8349302609
 Na        12.0428882842        4.7200082380        4.2717459031
 Na        14.9982121761        8.1477875258       17.7081973480
 Na         6.4421585513       16.8803991928       10.8773136172
 Na         4.6029967612        8.3423045928        6.1103423395
 Na        17.3467443524       14.0355577638       13.2562236578
 Na         1.6124583285        0.7190327653       11.1212731897
 Na        18.1930505511       13.7581879430        7.5134041174
 Na        17.7014764434       10.6472287322        8.6989324724
 Na         8.0203467184       16.8019686370        5.0671499034
 Na        10.6124646870        4.7299482383       15.1700330582
 Na         1.4747834131        9.9807929539        8.4033555034
 Na         6.2686097998        6.3359632485       -0.0381492691
 Na        10.0337530981       18.3133771892        2.2413095832
 Na        13.3776839245       17.6553418306       16.1527128758
 Na         9.8780582507        1.1420432749        8.1534397573
 Na         8.1137853802        5.2588177630        3.3049006018
 Na        18.6731633090       14.0401269966       16.1585495919
 Na        13.8511520528        3.4005768524       14.1164501859
 Na         5.7128961276       10.5613619838        3.5973240325
 Na        16.2571160313       11.4449109250        1.7421425658
 Na         0.6972619685       12.8232559201        9.7772712316
 Na         6.7980016870       18.8414699876        8.6155299769
 Na        13.8918260030        3.8526972478        0.4995689799
 Na        19.6839000044       16.1637478937       10.3616208264
 Na         4.1118805235       17.4334887308        7.4429881426
 Na        15.9115325171        7.0408413824        4.5075340294
 Na         5.1543816825        6.8004528743       14.1648678151
 Na        12.3619551250        6.8268995263       18.5979205674
 Na        20.0038911594       19.4734324498        0.1372470541
 Na        13.3451498146       19.3487031398       19.0913986472
 Na        10.8322738230       17.1520362903        5.3464242266
 Na         1.6755252409        6.0512481009        7.9800981947
 Na         8.6940355420        9.9386278936        7.4551275360
 Na        11.1754230172       12.8340674548        5.4126320434
 Na         1.8311158596       13.3074226658        6.8954070263
 Na         3.6279191040       14.1458156129       15.3505053969
 Na         7.5324978802       12.3820065695       10.8333094800
 Na        16.8316613973        5.5301367692        0.0811446760
 Na        20.3316478975       18.9259820260        6.9676634245
 Na        21.3272551190        5.9009662279       15.8824112255
 Na         4.7836409116       15.6101867673        1.9452825026
 Na        11.2238538535       15.8950144381       -1.0613329340
 Na         3.3185976192       15.2777307507        9.7700859840
 Na         1.4047636157        1.7170378901       15.0386830186
 Na        15.2156568310        1.6182403687        3.0321999281
 Na        19.0454492122        4.8932537736       12.9872453015
 Na        13.8734708364       12.7124844787       18.5956004778
 Na         4.6280269820        4.6595768266        2.8180469263
 Na        15.0181427922        3.2839330666        5.0234145373
 Na        15.8987538402       14.6405751910        2.0135425443
 Na        16.2230889379        6.5574101279       13.8838355489
 Na        15.0222813830        5.0865657138       17.0055477955
 Na        19.7951721203        7.8602420109        4.9117253226
 Na         4.5763184783        3.8962063236       16.0163115862
 Na        20.1508470913       17.5501557464       13.3238283484
 Na         3.3037911125       11.8564380225       11.2972182719
 Na        17.9345469886        6.1504050397       16.5111973792
 Na         7.0414023904        4.4026545480       13.1541511539
 Na        18.5057530847        2.8712204973       17.6920751700
 Na         4.4433060610        1.5095683924        7.6275169170
 Na         7.3008080779        2.9458393890       16.9853508676
 Na        11.1194262582        3.9840458812       11.4025225994
 Na         4.5395648044        5.4480141952       10.6396119209
 Na         6.6468564611       14.1173900119       17.8165982746
 Na         8.9276260395       18.0610341466       12.6421628674
 Na         5.2952056959       10.9503810608       15.7466916829
 Na         9.8927870456       12.1574358599       17.9029469339
 Na        14.6064260555        6.7706660286        1.7357094462
 Na         8.9429885855        9.9452826854       15.3322455545
 Na         4.4085643416        7.5925893371        2.5526864114
 Na         2.0907319620        9.2723377253        2.1450723520
 Na        17.8371243853       15.2804145403        4.9683635135
 Na         8.8903853597       11.3690025606        2.4460001774
 Na        15.0190409265       12.0727117371       15.2266580885
 Na        15.5020384830        3.5706949780       11.6207156845
 Na         1.5314354573       16.0733637795        4.2249435607
 Na        18.0438447102        3.3677851816        5.9165819852
 Si        15.7944701116       19.0611001357       12.6371300207
 Si         8.6937437163       17.0414626662       17.8430261117
 Si        18.4141764201        1.5005951389       13.0578817236
 Si        10.4820631070        6.4659814905        1.7385253282
 Si        10.5613091477        1.8349895963       -0.4271362757
 Si         3.0818674705        6.1402393456        5.1021708985
 Si        20.0041443217        6.5240580821       -0.2556244187
 Si         7.7844108960        7.9408242335        1.7433849877
 Si         2.6942833855       18.2108415131       15.8463149457
 Si         3.6106343582        6.0779782922       -0.4987075579
 Si        19.1003934581       18.6712619297       16.5162522827
 Si        16.8409161416       19.7820233180        6.0108222897
 Si        17.1911857219       11.2599654719       18.0058409145
 Si        18.4250842762        2.1135214954        1.9261182342
 Si        20.3854088178       16.0268686728        7.1956434949
 Si        19.2950881304       16.5512215036       -0.4391096089
 Si         8.9105440881        4.3300483251        0.0867226045
 Si        19.4220348511        8.1625945286       14.1904510062
 Si         4.2192812416       18.5323903500        0.2950684975
 Si        15.1911600759       14.8988258531       16.3930114278
 Si        15.4784816046       17.7611680871        1.7481355941
 Si        17.6997520779       10.8758549019       14.8729009660
 Si         3.9790521920       16.5569384809       13.7240114895
 Si        20.5899792171        5.6720452219        2.7972055022
 Si        16.0731621871        2.6144960807        8.1240145217
 Si         6.8208861533        2.6304997150        1.1586895567
 Si         1.4980629081        5.3803822965       10.7616888363
 Si        12.5369397597        1.2152011296        6.0806183259
 Si        18.0991314128        1.9624745071       10.0926107398
 Si        19.6377878742        9.6352303711       18.6460763538
 Si         9.7849194193        1.0016321348        4.5839154993
 Si        13.9281208280       15.9439950109       -0.3438304297
 Si         2.0158872081        9.4744851859       16.0370448407
 Si         7.3808977686        1.1114151973       10.9293913856
 Si        16.3638618422       18.6336586056        9.8652264544
 Si        19.9252660952        9.8286712810       11.6752880133
 Si        13.8003610674       20.1591497723        8.8352193186
 Si         2.8074179495       10.4390966563        5.0603800926
 Si         4.2236693588        3.3295590179       -0.3782011535
 Si        16.2347860168       17.9028690406       15.3942616100
 Si         5.8275407236       12.6304766366        1.1988577014
 Si        15.3528849186       20.5545249013       16.6956673903
 Si         4.6535870726        1.4091710230       12.1986572947
 Si         2.9578343450       16.3165316267       18.4221129317
 Si         2.8497336868        0.9574066405        4.2957319816
 Si        12.4245957806        1.8599696467       16.4662112595
 Si        10.3962461183       16.8926938786       15.2593943132
 Si        17.3179595478       17.0290565093        7.3747459939
 Si        18.5283215510       13.5908443388       -0.0356229549
 Si         8.9232900590        2.1925739653       13.4907226877
 Si        17.6417956309        4.9508217640        3.2054544891
 Si         6.4893773935       20.0855449962       14.5952679163
 Si        11.4121392522       19.6373950586       14.0829778447
 Si         6.9695787279        2.4030485173        4.2584537072
 Si         3.6516844070       17.9375047868       10.9948002866
 Si         8.0484538238       19.4859055084        0.1090724325
 Si        13.0129661387       20.5682019141       11.7895638410
 Si         5.4936019925       19.3782996171        5.0362584156
 Si         1.0334688828       11.6557420788       14.1664633458
 Si         1.5339473557       14.4027894836       12.8944562515
 Si         3.3400408755       12.9067882256        3.1590657705
 Si        13.0710403101       18.6220605802        3.5210831839
 Si        16.8933195160        3.4252335233       14.9464836793
 Si         4.6233548449       20.0667415750       17.1710233730
 Si         1.5188678889        2.7735057543        8.7691793142
 Si         4.0929770413        8.8845004222       18.2313904339
 Si         6.4750899222       18.0806555404        2.4050483474
 Si         2.0970182878        2.7752828494        1.8474593212
 Si         1.8039894685       12.0342621104        0.5469522908
 Si        16.0490493257        1.0717650797        0.2661688611
 Si        18.4066070443       16.9709225751        2.5609842192
 Si        12.1045327996       14.3467905422       15.7936270208
 Si         3.2126352453        4.1825732545       13.0348711370
 Si         6.7459756791       10.0594976697       -0.2324220885
 Si         1.8530059835        3.1934670226        5.6615796931
 Si        11.9311778377        1.8260887771        2.4032141518
 Si        19.1951103000       19.5883468575        4.1622314946
 Si         3.9257002612       13.2861451354       18.2191085649
 Se         4.9723174088        9.5119214406       13.0137885752
 Se         7.6355675442        7.2226224805        6.6469806978
 Se         5.2293443219        4.2654009346        8.2833365429
 Se         8.0640278573        6.4196280171       11.1911475937
 Se        10.2182451227        4.1071985223        8.6350685453
 Se        14.1090303675        5.1441452718        9.8034844709
 Se         5.0349741222       13.1371461513        9.4954715667
 Se         7.0094865777       11.3961562521        5.9232702262
 Se         5.3722147757        8.5667303235        8.9561485726
 Se         9.2487192689       10.2996942528       12.3024687357
 Se        11.1275640569       10.0184314510        4.7909666735
 Se        11.3795053915        8.3980481148        8.8817874904
 Se        12.1071735360        6.4491287658       12.9715290334
 Se        10.0136729387        7.5740218856       16.4488499465
 Se        13.6886746645        6.3537276034        5.9002577362
 Se        15.6644651582        8.3176426976       11.6073040370
 Se         9.9657263341       14.6988182622        3.5756294341
 Se         7.4317986647       16.0343839828        7.7247958016
 Se         9.3697323358       14.7669879095       11.5954615550
 Se        11.5815170109       10.7546401873        0.4614840393
 Se        10.1135633989       12.3943916590        8.2259680394
 Se        13.1116838219       11.8761490134       11.6817830956
 Se         7.9089689587       12.5059613168       15.6267943094
 Se        14.7775257249        9.3004555812        2.9505615399
 Se        14.7082691779       10.6497990785        7.6547787061
 Se        16.9226274088       13.0784057907       10.4518911776
 Se        12.6661226771       10.4696109879       15.9215644872
 Se        18.0394382928        7.6512089304        7.5444997227
 Se        10.3875303045       17.4995994970        8.6741390037
 Se        13.8318490204       16.0642481433       11.9439482770
 Se        14.0016549100       13.5759181102        3.8444786065
 Se        13.2510846749       14.6767109232        8.0844896169
 Se        17.1197983278       12.5079077675        4.9434328046
 Cd         6.0270953145        5.2449774641        5.9742364178
 Cd         9.3975811895        6.6170823443        8.6384966964
 Cd         3.3862162147        8.4466164257       10.8033309582
 Cd         8.0118734038        6.1459184770       16.4409516824
 Cd        12.7024243051        4.4980233379        7.6098463129
 Cd         7.6385739260        3.6047955885        8.4841076798
 Cd         4.8943380816       11.0182532042        7.7360505339
 Cd         6.5553835365       13.6955725692        7.3123924861
 Cd         6.8199396869        8.8916480680       11.2361409823
 Cd         9.9040679143        8.9921977703       18.8188838724
 Cd         9.3866585183        7.9088737272        4.5510947677
 Cd        12.7644395157        8.7157669329        6.4652010102
 Cd         9.8767681029        7.6447338208       12.4792074515
 Cd        13.3152989246        7.9859809222       14.9430683247
 Cd        15.9051977725        6.0643351204        7.8953853457
 Cd        13.1794933078        7.4896598363       10.5737256060
 Cd         9.6635501457       14.9286310637        9.0256411038
 Cd         9.2581031281       13.7903321336       14.0283976282
 Cd         7.0599842072       16.5583420948       15.0630843299
 Cd         8.4288441442       15.1949367748        1.4804026430
 Cd        12.7395351710       12.0363693054        8.3958149150
 Cd        10.8353266977       10.7208590111       10.4092657941
 Cd        11.7122639042       11.2354674797       13.6633148721
 Cd        12.2124325107        9.2679044510        2.4690427734
 Cd        15.0013403506       11.0509978341        5.0241561719
 Cd        14.8907496167       14.5000467092       10.0745690570
 Cd        16.3763368723       10.7512242887       11.6583174638
 Cd        17.8764999461        7.5449926213       10.2980498656
 Cd        12.4280358378       15.2803367239        2.6156720048
 Cd        12.6329953444       17.1235185625        9.9192318650
 Cd        14.8637492187       14.6290099752        6.1516994946
 Cd        11.9830303566       14.3095723978       12.2327094994
 Cd        19.0956768798       11.2246746155        5.8425919481
