417
 i =    10000, time =    20000.000, E =     -8967.2393948355
  O        14.4078437206        2.3113590109        8.5885366929
  O        15.7474124705        1.1485959168        4.9448614558
  O         9.8081977806       17.4995281603       16.9285972926
  O         6.2360137139       11.1733189498        0.6401592588
  O         2.7000432001        6.2374132163       10.3274838342
  O         1.8498901303        4.6453168419       12.3475696751
  O        16.4572263355        6.1313846498        2.2955297987
  O         5.0131170284       15.9168365123       14.3629224454
  O        15.1664299015       19.2297348574       15.9353154220
  O        12.7641839803        2.5698889709        5.7645548364
  O        11.7644945728        2.1580820587        0.7323333643
  O        12.9909048636       19.2655099892        4.9151721041
  O        11.8317516162        7.4305075524        1.3166622875
  O         4.9498979124       19.1339525461       -0.9117496646
  O         6.7456692988        3.9589360894        4.3824765175
  O         3.0429129516        2.0239178086        5.6371746390
  O        19.2269149531       15.7645435994        3.0138242166
  O        14.4045959758       19.6769511853       12.4622110746
  O        18.3811204717       20.9866317003        3.3088275957
  O         6.5575180285        5.2394433918       15.4371441499
  O         1.6449479297       17.9988618740       11.1776287859
  O        16.5788109195        2.6705049546        9.7020257626
  O        19.5320776495       11.8807488414        7.8257855072
  O         2.9664816822        3.1216840488        0.6299706854
  O         5.4497363972        9.7532964736       17.9019001039
  O        17.6057824428       13.3498629907        1.1901900563
  O         3.3015503785       10.7329371300        6.4640355757
  O        18.3589280301       20.0908969269        5.6769214996
  O         0.6215224251        8.3671002981       12.7178078218
  O        17.7148617729       12.7362515740       17.8837543754
  O        15.7153817434       16.6943036861       16.0246800955
  O         4.4039125037        6.5692406056        4.6096407841
  O        12.7177042893       19.8959377650        7.5841762787
  O         3.7880752955       19.5640323720       11.5819766288
  O         6.9535111652        8.7004778199        0.4551840139
  O         3.7868216111       19.1490617639        4.6025005776
  O         0.5918500763       11.0995834066       12.8038339523
  O         9.3605860752       18.9001143711        3.9986986083
  O        13.0596486321       20.1084130619        2.4283811490
  O        18.8330868535        6.7652246637       14.5875350671
  O        10.1604485205        6.1056312670        2.9758682697
  O         2.5314311710        7.1720141060        6.4014818345
  O         9.6418632145       20.1530479144        0.2328919122
  O         2.6180890165       19.1920248488        0.5131772071
  O         0.7933822661       14.8513384308        6.2398447041
  O        19.5273358976        8.3449879454        0.0938309711
  O         3.1994532098        9.4826955499       16.8060379390
  O         2.7989158602        4.7696391613        5.5415067119
  O         2.5654434122       15.4641933274       13.8222399570
  O         3.2053540971       19.7036154505       16.4307362399
  O         1.9390306250       11.0486025677       15.1972262147
  O        17.1315020048        4.3011486809       16.2308953800
  O        18.8946236414        5.9514226014       -1.0840033481
  O         5.1096725387       13.5531796672       19.2857258299
  O         3.0678860303       16.8926061168       16.7201380439
  O         8.1167472293        5.1021283062       18.0521635094
  O        16.9995206370       17.5278801340        8.9149784245
  O         7.0743386667        6.6868558415        2.1629906952
  O        19.0344774764       17.4909727407        1.0043316243
  O         7.8375376831       18.7211621879       18.1677540924
  O        16.2581381238       11.3292943231       13.8495656477
  O        18.9655382892       17.2029403476        7.2573681920
  O        20.0212040420        3.0036875644        5.1995494141
  O        13.0987562174        2.6375549955       12.1710679797
  O         5.0297841975       18.5089179054        1.6757076158
  O         7.4489528721       16.1746906523       17.2462038836
  O         3.1660795415       17.9770999541       14.4043989748
  O         8.0618128652       10.4814250267       17.9436340738
  O        13.8132504560       14.8354477839       15.5297469400
  O         5.9450602678        1.8766904006       11.4965086887
  O        11.6469713222       16.1451612505       15.6436702658
  O         9.8942688344        3.1892297759       -0.8974282283
  O        15.5132737160       11.3099307217       18.4710812087
  O        18.8715849619        5.3841405480        3.3527422935
  O        10.2531605877        5.4233137756        0.3873017006
  O        19.7085848342       20.3746287831       13.4430066059
  O        18.4342946709       15.1935256797       18.7087379686
  O         5.7311430207        1.6078179558        4.9417664460
  O        13.9609312725        1.7202877632       17.1731600377
  O        16.0040872600       18.7972629607        0.4821647180
  O         7.8852107427        9.1934867889        3.0099360113
  O         6.2865086134       18.5158534563        4.0125336608
  O        16.5786576519        4.1678750567        4.0585168701
  O        18.7181959740       11.8696723421       15.0114686434
  O        11.6935252567       13.8472145819       17.0212594236
  O         4.4315069247       12.6199128821       16.8086223887
  O        19.9985119087        2.3654537965        1.3128782468
  O        13.2502283889       17.3616792068       -0.7539694691
  O         1.7374431363        3.9393201102        9.8900981635
  O        20.1273798746       10.7993049109        0.4854974617
  O         7.2328803046       18.7222088611       14.4912225567
  O         1.3823439614       13.3492567381       14.3190252750
  O         3.8701603517        4.8284135974       18.0333934927
  O         1.3389686627        8.4733589004       15.2540284868
  O         6.6982863678       16.7281632416        2.3485073316
  O        14.3957579056        5.4930003847       18.9944510948
  O         2.7372659560        3.9336962612       14.8037406479
  O        18.0136830085        2.9290061083       14.1093044097
  O        20.1593702575       15.4098232596        8.9135528307
  O         4.0333420996       17.9164182062        9.5954178744
  O         1.0346635330       18.3473718510       15.7649654193
  O        17.7438344467       10.1450308118       18.7562135615
  O        16.3020380521       14.3037970234       15.7303323286
  O         5.5138021370        3.6300073537        0.4376669730
  O        18.8269856814       17.7531798042       17.9239324594
  O        17.8269477348       18.5401309939       15.6084416935
  O         1.4486362976       16.2496922610       -0.4699579035
  O         9.9264540225        1.3763693141       14.4120190416
  O         4.0650323707       16.9857612709       12.0827165316
  O        18.1147323831        9.2653348680       14.4748954835
  O        19.9854903480        9.9682871470       17.3039681087
  O        14.9744306739       19.1218147041        9.0808984382
  O        18.5327230097        9.8632233193       10.8312860828
  O         7.4681119510        1.9827544414       14.4559787662
  O        16.0705904229       17.9218618523       13.8222944895
  O         4.0014759070        6.1814937304        1.0136084510
  O         3.5086174612        2.6286609088       12.5012813469
  O         7.9026757672        1.3955536669        9.5604927907
  O         3.2556879476       14.6471727810       17.9647981554
  O         5.9073614894       20.4734702184       16.2182249927
  O        15.2177999924       16.3834635805        0.8449705021
  O        16.8626469074       15.7331620461        6.9355780625
  O        10.7562127388        1.8680280530        3.3349409072
  O         2.1491401520       16.9969228804        6.9966495954
  O         3.7938107652        9.7967728304        3.9362668873
  O         3.2198368267       14.6004663509        3.0146693713
  O        12.9624396632       14.9839614853        0.5612174728
  O         2.0103662310        6.5889111594       18.4816489084
  O        12.1943418957       17.6010194607        3.0547841245
  O         3.5064443976        9.0260303684        0.2503296231
  O         4.4331979137        5.1227117177       13.0465646047
  O         2.1416903595        1.3582795167        8.9659817466
  O        15.9606321640        4.5570896272       13.7449114903
  O         7.2382938781        1.6654114702       -0.1786420208
  O         9.1432625399       16.5041536910       -0.0345361587
  O         4.7141634586       12.4173588695        2.3341193427
  O        16.5569093064       18.2948887080        6.3378896439
  O         5.7075298581       18.8349833361        6.5803203741
  O        16.1270759534        3.9021001189        7.2526230447
  O        12.3859100119       20.1612879558       15.3115072919
  O         7.6810195739       19.0643396125        1.5568536178
  O        19.3674282140       15.6573789133       13.3003501545
  O        16.5309105129        1.1972182362        7.5142952621
  O        18.5931438543        2.4164752932       11.5288279191
  O         1.8947037075        4.2260956568        2.7945957987
  O         2.1540785280       12.3051825591        1.9875566823
  O         1.9062698957        9.8415918495       10.7298526602
  O         1.7412434782        6.6439288805        3.8480132041
  O        11.4137304942        1.3424560483       17.6759778215
  O         5.1196774230        0.9776767758       13.8472137572
  O         8.1623014641        3.8085789620        1.0763063016
  O        11.6009093286       13.7765087345       14.2234600217
  O         7.1456248453       -0.5644206930       11.1550619331
  O        19.1731978184        2.3839599821        9.0184218344
  O         4.5129277983        7.3269337967       17.8909574558
  O         6.5925262183        2.1954765157        2.4514607782
  O        10.8541961827       18.3342646876       14.6079584458
  O         4.2608759217        2.2786178979       17.8226921679
  O        11.7646811450       19.7630271089       12.7460184776
  O         9.1453391035       16.3178279900       14.4395803058
  O         2.9015127144        1.8592313941        2.9131133668
  O         3.9376039364       16.8161371213       -0.0787137737
  O        18.9166492425       18.4229306212        3.4329578621
  O         7.2148660367       13.2964373562        1.6847426812
  O        17.6126618669        3.6089652993        1.7299730798
  O        15.1375951222        1.9664129017        0.7832588260
  O         1.3290536277       19.7216024390        4.3514216179
  O        20.2592447982        6.1943105549        1.3305270009
  O         8.5000297713        1.9274573261        4.4678978353
  O         9.2520763474        3.7797900252       13.4133885441
  O        20.9791926309       14.0157817165       11.6985774420
  O        13.0184545761        3.3649837375        2.7044434878
  O        14.7375272128       18.2326384719        2.8056873776
  O         2.8438518416       12.1676681209       18.8429496229
  O        16.9511037328       17.0555422766        2.5136268099
  O        17.6450256785       19.7915749390        9.9888193144
  O        14.7551654017       15.1192965345       17.8955115931
  O         8.5618774091        1.4526218747       12.0833836573
  O        15.3720454062        7.3204039818       15.9246905890
  O        16.8999812320       10.7606836588       16.2898958057
  O        16.3191800764       20.7008381843       17.8804232171
  O         1.7155115525        3.5109687020        7.4647724154
  O        16.9471248039       20.2092944386       12.8454385373
  O        15.7053353807        2.2821605383       15.2372139711
  O        10.6207696442        0.9626750236        5.8886950844
  O        12.3348951142        3.5546854920       16.0638457991
  O        16.2064999175       18.2411011564       11.2582996340
  O        17.7747617652        1.2086975642        0.7466136259
  O         1.3239301571       10.3824146723        4.5652066968
  O        19.9118097483       13.3354855889       -0.0825447150
  O         2.9971867163       12.3498342583        4.4197846780
  O         9.2046300363        7.8181517629        1.1057496419
  O        19.4344469093        5.8176373654       10.8482314371
  O        12.9477041262       20.1548281005       10.2836348820
  O        19.2405068126       20.3251559849       17.1936636041
 Na        19.5330397346       13.5195313431        2.8690365039
 Na        11.2343577507        4.5738590039        4.0294904744
 Na        14.9203255642        9.1843880160       17.6371689485
 Na         6.0029266795       16.7718523518       10.5711416351
 Na         4.4989866682        8.4766127835        6.1084700425
 Na        16.9032991196       15.0323255885       13.3076176056
 Na         1.5548107280        0.9914799979       11.4217470783
 Na        18.1165702251       13.9401627822        7.6855388807
 Na        17.5049564755       10.4648394497        8.0613023552
 Na         7.9953645116       16.8052613175        4.7044845859
 Na        10.4792015952        4.4387411155       15.2219893433
 Na         1.8692405853       10.2224348123        8.4004077069
 Na         6.3052074488        6.3322483775        0.0479715124
 Na         9.9485486182       17.8419402079        2.1519645307
 Na        12.9830022866       17.9839944602       16.2637108957
 Na        10.1752189468        0.8714098830        9.8806160799
 Na         8.2010874495        5.0881225444        3.1727104941
 Na        18.5534145816       14.1148512688       16.1610734239
 Na        13.7414020840        3.9874063734       14.1635540693
 Na         5.8721270686       10.4207041609        3.3607012133
 Na        16.2678828498       11.3547227763        1.4405867263
 Na         0.6046389499       12.9923323440        9.9404531606
 Na         7.1496738715       18.7937486440        8.3643359317
 Na        13.9003910260        3.6797491270        0.6767598505
 Na        19.2116699059       16.8891244331       10.2256544811
 Na         4.2745349328       17.0637035664        7.3890852207
 Na        16.1396745693        6.8042262103        4.4619256783
 Na         4.8377696406        6.8646217465       14.5850030982
 Na        12.3635435651        6.2654959112       18.6216967838
 Na        20.1072123691       19.7604600104       -0.1353229697
 Na        13.3430303236       19.4957243687       19.4110458109
 Na        11.1243157126       17.4529325457        5.2322358441
 Na         2.1319609089        5.7683155917        8.0702774153
 Na         8.4582324495        9.7320988869        7.4844826305
 Na        11.2195364668       12.7993489537        5.4093132842
 Na         2.3611367065       13.1926419288        6.8382914784
 Na         3.9252474534       13.9133948134       14.8742118753
 Na         7.5437685147       12.3810306374       10.8342619662
 Na        16.5482096356        5.7692433201        0.0123454012
 Na        20.5509719715       19.0071219064        7.2163289778
 Na        20.7370448474        5.7791492523       15.9748044367
 Na         4.5916856382       15.6734172137        1.7150700154
 Na        11.1355732313       15.5891009923       -0.8027007566
 Na         2.7069557633       15.4044939942       10.1316318480
 Na         1.4979961183        1.9522036148       15.0804891019
 Na        15.5387938275        1.8874902214        2.9839894617
 Na        18.7172250382        4.9673755410       12.8633754720
 Na        13.4504596471       12.6083819414       18.6257391806
 Na         4.9501212190        5.0547602088        2.7109463867
 Na        14.8969581334        3.3009051052        5.3267816454
 Na        15.7816126529       14.3834492909        2.0523246960
 Na        16.3771107099        6.8440211769       13.9827421659
 Na        14.7235178757        5.1272159444       17.0697207390
 Na        20.0616742376        8.2310126233        5.0352603487
 Na         4.8008471631        3.8604991664       15.8134501119
 Na        20.0544987524       17.9727344947       13.4211560585
 Na         3.1390318800       12.0336386703       11.6254380795
 Na        17.5346361345        6.6568535811       16.5122401842
 Na         6.9740636242        4.6472453551       13.3555364661
 Na        18.5754158547        3.2454865677       17.5151182716
 Na         4.2714873812        0.8438552889        8.3524928778
 Na         7.5805741515        3.2452689158       16.5828692442
 Na        11.2289525427        3.8356002078       11.7290199779
 Na         4.7033854674        5.2048303031       10.8438517972
 Na         6.6280624080       13.9963554547       17.5076845934
 Na         8.6869877092       17.7016438712       12.6734933759
 Na         4.8628139290       10.6893285086       15.7420280693
 Na        10.1126888781       12.1339812255       17.2054875048
 Na        14.2099416343        6.5584862674        1.6991483121
 Na         8.3529590741       10.1008361727       15.7612893282
 Na         4.5108643683        7.8382083085        2.5001911117
 Na         2.0240924775        9.5140224465        2.0970893571
 Na        18.2035572741       15.4642361083        4.8820011766
 Na         9.0803621273       11.7737267239        2.3997543246
 Na        14.7975841878       12.5005951897       14.9978600823
 Na        15.2755281738        3.7095937790       11.4458216358
 Na         1.9678322967       16.0652020693        4.4545446321
 Na        17.8699382544        3.4511475086        5.7475255940
 Si        15.8598131966       19.0185576228       12.6448688347
 Si         8.5202133947       17.1621220395       18.0025911538
 Si        18.3200016694        1.6669018173       13.0713827692
 Si        10.4314555107        6.6655666473        1.5362118774
 Si        10.6892462529        1.8521682873       -0.3607943435
 Si         2.8938730576        6.3138208971        5.0797419837
 Si        19.9102520405        6.7176241393       -0.1496508186
 Si         7.7573608417        8.1469347640        1.8284179622
 Si         2.6223992167       18.1609168222       15.8532514839
 Si         3.5895728367        6.3146771801       -0.4599973405
 Si        19.0606207712       18.8048721691       16.6746458898
 Si        16.6957461838       19.9019360538        6.0093709620
 Si        16.9393163801       11.2736200844       17.8182943206
 Si        18.4197731238        2.2386494622        1.8445498895
 Si        20.2728408295       16.0398522828        7.3957933096
 Si        19.2518276228       16.6117912658       -0.4337093522
 Si         9.0925851165        4.4660154318       -0.2162902708
 Si        19.3699875387        8.2109987479       14.2007078553
 Si         4.0090558758       18.4899472058        0.3509525300
 Si        15.2068318857       15.1721210833       16.4066814244
 Si        15.7404678784       17.7295659146        1.6345711141
 Si        17.4616783014       10.7447178858       14.8082456878
 Si         3.7104956752       16.6472801687       13.6608726116
 Si        20.3597372238        5.6341539056        2.8297481032
 Si        15.9787921601        2.6125635605        8.1943757076
 Si         6.8517443915        2.8331221795        0.9342214854
 Si         1.4933700624        5.2335337979       10.8823142859
 Si        12.3594464842        1.0399424593        5.9310871690
 Si        18.0779609695        1.9735718431       10.0688300822
 Si        19.3452411965        9.7815054071       18.8093587255
 Si         9.7716885370        0.9768975431        4.3469940073
 Si        13.9696583385       15.9799325530       -0.2387301951
 Si         1.7522741082        9.7629372286       16.1532136556
 Si         7.3486059454        1.0206072343       11.0307191371
 Si        16.4175885553       18.7278943194        9.7236860163
 Si        19.8964446812        9.8202002461       11.6804153559
 Si        13.7456306617       20.1892214604        8.8031029286
 Si         2.8861923383       10.6927565248        4.8509352160
 Si         4.1022876838        3.4637344083       -0.4351668369
 Si        16.2585586885       18.0823209686       15.4491615188
 Si         5.8270339560       12.6684777173        1.1128554797
 Si        15.4415658952       20.7325115714       16.5354032852
 Si         4.5858762522        1.3985227635       12.3297086564
 Si         2.9040341508       16.1521721406       18.2137641084
 Si         2.7955684180        1.0058225255        4.3634503043
 Si        12.4684704995        1.9992309880       16.4897415251
 Si        10.2616166057       17.0244632367       15.4140090239
 Si        17.3372626451       17.1773051391        7.3018692680
 Si        18.3141322549       13.6191930228       -0.1761701477
 Si         8.8333288172        2.2763650491       13.5102881577
 Si        17.2843994993        4.8732252945        2.8303806798
 Si         6.4584707772       20.0480133606       14.7126907935
 Si        11.2036777791       19.7923694922       14.2548431223
 Si         6.8772954810        2.4012970146        4.0976539193
 Si         3.2601076017       18.1300424378       10.9785187834
 Si         8.0370236488       19.6897478148        0.0799882157
 Si        13.0631024953       20.4892058057       11.9198848163
 Si         5.3923214916       19.3719896898        5.1204679412
 Si         0.8005778201       11.8416388246       14.2579342453
 Si         1.2873783888       14.6552948384       13.1048669606
 Si         3.3411861412       13.0029248855        2.9652173210
 Si        13.2127805059       18.7780269101        3.3197512388
 Si        16.6940455012        3.6282626863       14.8456386635
 Si         4.5900802309       20.1675060559       17.2310757999
 Si         1.4147165138        2.7633450972        8.8204825305
 Si         4.0567623223        8.9385562309       18.1947707089
 Si         6.4481992538       18.2831926660        2.3727106143
 Si         2.0864515039        2.8407979256        1.9619640453
 Si         1.5416049141       12.2115836231        0.4501327322
 Si        16.2373366392        1.0895953653        0.1356789334
 Si        18.6015251818       17.0957018453        2.5108636340
 Si        12.1347524703       14.5501627653       15.6126364844
 Si         3.1817580242        4.1582807484       13.2535913720
 Si         6.7498240820       10.0386591872       -0.5305185696
 Si         1.9811351769        3.3078696254        5.8769969151
 Si        12.0884724044        2.0938233203        2.4393306367
 Si        19.0880428354       19.8249653108        4.2483931548
 Si         3.8665161543       13.1579984377       18.1550252797
 Se         4.8607847740        9.6002321303       13.1098356986
 Se         8.2367903284        6.7849486788        6.4548874444
 Se         5.4090021488        4.0448597686        8.0916750389
 Se         8.1215012970        6.7220877239       11.2631278043
 Se        10.3885873794        3.7677743685        8.7773727405
 Se        13.9970758360        5.2735946300        9.5370615164
 Se         4.6599859426       13.0742286592        9.4086877095
 Se         6.7887837397       11.2784472751        5.8406559360
 Se         5.1816262952        8.4858462741        9.0644263112
 Se         9.5180634406       10.5368353759       12.5796798740
 Se        11.1075473949        9.8789975688        4.9309996654
 Se        11.3042419867        8.5743447347        8.8098571051
 Se        12.5473626671        6.7528209917       12.9922861546
 Se        10.1555082865        7.7561538122       16.2542715531
 Se        13.5872505921        6.2878147644        5.6680664417
 Se        15.8127880601        8.3091607863       11.3228333795
 Se         9.9816092755       14.7921819980        3.6124155801
 Se         7.2242804139       15.8713532841        7.6598603078
 Se         9.3823944359       14.6928511264       11.4148654512
 Se        11.4260551105       11.0516165617        0.4965152025
 Se        10.2028522814       12.5484735862        8.1308511484
 Se        13.2282643269       12.0015136013       11.3801951844
 Se         7.3963925894       12.7056475371       15.3652942951
 Se        14.9869977194        9.4475587162        3.0126081964
 Se        14.6830337300       10.4986325745        7.5511327583
 Se        17.2484629465       13.2517406057       10.5012002586
 Se        12.8412698971       10.6514925007       15.9480352129
 Se        17.8818334568        7.6495039689        7.4982049622
 Se        10.6398429855       17.6316911140        8.4159812771
 Se        13.8952648480       16.1633545927       11.9735037230
 Se        13.6707735130       13.5451239778        4.1681289434
 Se        13.4006122777       15.0692985645        8.1175281440
 Se        17.2777891260       12.7131400308        4.4863249803
 Cd         5.8538108405        5.3345219204        5.8679597244
 Cd         9.7166901852        6.4553089348        8.7095503086
 Cd         3.3993325058        8.2897657446       11.0046868082
 Cd         8.0137133349        6.4721078724       16.1629156478
 Cd        12.6679099191        4.2442118437        7.3295899835
 Cd         7.8327246201        3.4804551435        8.3621865848
 Cd         5.1205701490       10.8687125921        7.8598006432
 Cd         6.2435151452       13.6403740664        6.9184148638
 Cd         6.5896120370        8.6448962138       11.4432527166
 Cd        10.2890961875        9.0433201525       18.6073038407
 Cd         9.4157166916        8.0780604524        4.3320915714
 Cd        12.8892662583        8.6358673873        6.5985582200
 Cd        10.0903248713        7.6527161145       12.7072234948
 Cd        13.6305009622        8.2010933385       15.0553417566
 Cd        15.7319937862        6.1568964455        7.6742481338
 Cd        13.3447658757        7.6301671043       10.3975349169
 Cd         9.6457093231       15.1465485065        8.5988859372
 Cd         9.0989373494       13.8482694563       13.9486961930
 Cd         6.8512313383       16.6532500205       15.2505832572
 Cd         8.2696010987       15.2687795750        1.7043155579
 Cd        13.0287357207       12.4078790755        8.3255395293
 Cd        10.9685663011       10.9024533583       10.2041532948
 Cd        11.8195752237       11.3362049912       13.6461984023
 Cd        12.3836300646        9.6836187070        2.5767458050
 Cd        15.1803590316       11.2835003602        5.0427734242
 Cd        15.0817009333       14.7748641149       10.1175475340
 Cd        16.3533556606       11.0330246152       11.6659342952
 Cd        18.1570171662        7.5987952963       10.2281065182
 Cd        12.3443897621       15.2835968748        2.6987527508
 Cd        12.4538330389       17.2184461828       10.0339933186
 Cd        15.0788875264       14.6554893545        6.0372698392
 Cd        11.9073180281       14.3359744897       11.8857470287
 Cd        19.1974466982       11.7167670360        5.7534506818
