417
 i =     9600, time =    19200.000, E =     -8967.2639500402
  O        14.6382303954        2.1183551761        8.7204128387
  O        15.9695115665        1.1430990135        5.0884411559
  O         9.6129505758       17.3218420039       16.8478676127
  O         6.3259761586       11.0212976879        0.5117542890
  O         2.5425868686        6.4416913530       10.2824347346
  O         1.9517448266        4.6445365967       12.2574299098
  O        16.6098909704        5.9219914147        2.0489528527
  O         5.0194433397       15.7510308003       14.2859622278
  O        15.1957645523       18.9031993225       15.9753022333
  O        13.1238465397        2.7018546731        6.1283897349
  O        11.8239832058        2.1280201888        0.8994835871
  O        13.0073016207       19.5403854620        4.9157301096
  O        12.0161214784        7.2602738522        1.2685610059
  O         5.1207958378       19.0654815202       -1.1001759476
  O         6.8476429118        3.9818111105        4.3037486019
  O         2.8799333177        1.9568845525        5.6514707223
  O        19.3804363957       15.7534377118        3.1163530766
  O        14.7500917663       19.9069098513       12.4659052047
  O        18.3137524873       20.8260443584        3.1018613570
  O         6.4409173427        5.4016110074       15.3649311444
  O         1.9976900177       18.0467862302       10.9682997760
  O        16.7783628120        2.8365759445        9.6250787404
  O        19.8491569414       11.7816065754        7.8217740955
  O         3.0652719751        2.8179037193        0.4726064873
  O         5.6057192226        9.6824191032       17.8315496420
  O        17.6582126844       13.2992477809        1.1461540405
  O         3.1623156208       10.7080645339        6.3828054429
  O        18.6209568011       19.8671473932        5.5709464090
  O         0.8789983490        8.5395283744       12.8709017584
  O        18.1630081438       12.9613934176       17.9245743760
  O        16.0654528547       16.4283311295       16.1043661968
  O         4.5841873917        6.2947789960        4.3887173463
  O        13.0751332767       19.6882540074        7.6119302997
  O         3.9758347471       19.7309449881       11.3904203169
  O         7.0697764727        8.4901206287        0.2745824050
  O         4.1205255259       19.4953454976        4.1798446746
  O         0.8134049974       11.3100696541       12.5607658872
  O         9.7968690619       18.7271611738        4.5840139344
  O        12.7743438488       19.7216325812        2.2372653404
  O        18.8264172039        6.7297475126       14.3925513937
  O        10.2697411938        6.2805916905        3.1696251373
  O         2.7443302773        7.1279337374        6.2297579285
  O         9.7880602848       20.0898044252        0.3302409438
  O         2.9239094826       19.1840585909        0.4247911184
  O         0.7549576618       14.6848735259        6.0560001641
  O        19.7246451314        8.3211222395       -0.4278725177
  O         3.3901163890        9.4407081892       16.7867401516
  O         2.8388469431        4.6048574061        5.4263485011
  O         2.4701374606       15.7453429007       13.4552675681
  O         3.3711932729       19.6055185806       16.5331224082
  O         2.0163725593       10.8716164305       14.9738022085
  O        17.3262669729        4.2455864825       16.1912887099
  O        19.1176179417        5.7965646568       -1.1369390143
  O         5.2696899579       13.4446728313       19.2479095030
  O         2.9951067272       17.0110296788       16.8909837588
  O         8.0732281755        4.8963138805       18.1880803505
  O        17.2250507307       17.2748383981        9.0927578691
  O         7.2480871552        6.6316261657        2.0750076632
  O        19.1073014026       17.4630992532        1.0656767249
  O         8.0075183968       18.5330199275       18.4117705406
  O        16.5504621949       11.2241220177       13.7494205717
  O        19.0293723394       16.9682385335        7.1859868367
  O        20.1155292370        3.2575474910        4.6750765304
  O        13.0995805260        2.6088378108       12.1123929763
  O         5.5029408301       18.6033870972        1.3889053490
  O         7.1086435991       16.2567739802       17.2133468698
  O         3.3456907102       17.9133717728       14.3881278651
  O         8.3141166266       10.3070354100       18.1231429950
  O        13.7688660960       15.0806018283       15.7531074673
  O         6.2255034881        2.0423893273       11.5768725074
  O        11.4932628515       16.2717159103       15.5233335439
  O        10.0218024686        3.1897256560       -0.8071625277
  O        15.7631009752       11.6523236848       18.5042145957
  O        18.9768282846        5.6870957357        3.3828797817
  O        10.2303670727        5.4135120145        0.6878162011
  O        19.9430900963       20.2900288614       13.2101674342
  O        18.4652723450       15.3998808205       18.9948805688
  O         6.1220381735        1.5901085614        5.2258485379
  O        14.0507518451        1.4499181931       17.2793931079
  O        16.2405708236       18.6776539607        0.6092160339
  O         7.9433176780        9.1701212202        2.8735183070
  O         6.4480453475       18.7322173032        3.9221787703
  O        16.7996198531        4.0822305174        3.9275976726
  O        18.9965554325       11.9636600429       14.8777699077
  O        11.5979324052       14.0206397446       16.9653438553
  O         4.6697841427       12.8169825423       16.7553416239
  O        20.1850389565        2.1420131004        1.4680760185
  O        13.0614515631       17.2627697969       -0.6907761868
  O         1.8747157580        4.0036989518        9.8356198750
  O        20.2779265316       10.7340254005        0.3480176107
  O         7.4051036398       18.7653597287       14.5971691196
  O         1.7345761648       13.3256128743       14.1205885303
  O         4.1122491556        4.7304918989       18.3707016206
  O         1.3498427968        8.2389158115       15.4505998233
  O         6.7306536896       16.5095296608        2.4588169982
  O        14.5759243444        5.4168400182       18.8967172736
  O         2.7204280419        4.0885918431       14.7794861933
  O        18.1908082803        2.7671363180       14.1670812935
  O        20.5163781286       15.2438172907        8.7308470222
  O         4.4167635491       17.6686127230        9.6526098092
  O         1.0749177248       18.3132381337       15.5579161871
  O        18.0408404339       10.3614226759       18.4767894275
  O        16.0332145412       13.8179400264       16.1007101231
  O         5.6901357383        3.3173709119        0.6458667539
  O        19.4939766793       17.7353773056       17.8398382484
  O        17.8181580003       18.3683046917       15.7498345809
  O         1.6654134058       16.2916874547       -0.2668767567
  O        10.2472862584        1.5361447319       14.2250397177
  O         4.2791469873       17.0481088888       12.0170655606
  O        18.4624974413        9.4284260004       14.7457101559
  O        20.2426239410       10.1994941102       17.1813187515
  O        15.2256072266       19.0686084261        9.1429849697
  O        18.6354392696        9.4956561587       11.0479096971
  O         7.6325977425        2.0952545132       14.4388647777
  O        16.0902946859       17.8004888285       13.8425227144
  O         4.2472862433        6.0988728150        1.1607003795
  O         3.8569735612        2.7539661942       12.4732091950
  O         7.9054208262        1.4994634172        9.5692636389
  O         3.4114261387       14.6771111111       17.9510741872
  O         5.9383252735       20.3981787564       16.1064348341
  O        14.9260775186       16.4813210450        1.1718170114
  O        16.7532728277       15.5637050802        7.0440377526
  O        10.9730166673        1.7574109601        3.5978480585
  O         2.1868813412       16.8396906980        6.6618847669
  O         3.8469059034        9.4979108800        4.0067400766
  O         3.3278012751       14.4910110814        2.7364172285
  O        12.8420162818       14.8776023832        0.5559611874
  O         2.2698944526        6.4097820678       18.5698412343
  O        12.5209866812       17.3522022364        3.5322495397
  O         3.7142371735        8.9897368522        0.2526127549
  O         4.5224673083        5.2068221394       12.9295521681
  O         2.4047427779        1.4675119112        8.7060579255
  O        16.0434066919        4.1433825462       13.7073695383
  O         7.3633843219        1.4339049254        0.1436538707
  O         9.1009041926       16.1774553268       -0.1868300049
  O         5.1858030382       12.4154397349        2.3069209530
  O        16.8754363807       18.1528702089        6.5024844008
  O         5.3402421736       18.9189797379        6.5105336223
  O        16.2151785722        3.7140576852        7.0963122033
  O        12.5436988408       20.0115255197       15.2824105830
  O         8.1386924978       18.6798854432        1.7177582640
  O        19.3247876124       15.0981761565       13.4656621410
  O        16.8599844245        1.1341838405        7.5785169945
  O        18.4234918753        2.4186963922       11.6019288079
  O         1.7935242625        4.4128050596        2.1885714885
  O         2.4297071542       12.1129633468        1.8991734009
  O         1.9447474612        9.8840064872       10.7205398171
  O         2.0423286943        6.6055364796        3.6906957966
  O        11.4852855137        1.3023004375       17.7239649477
  O         5.1999921990        0.8410834057       13.7124566361
  O         8.3281485000        3.7199138926        1.0763800362
  O        11.8502577411       13.9188159945       14.2685319127
  O         7.1215917679       -0.5022329121       11.1739383535
  O        19.2791489544        2.2985506497        9.1267918825
  O         4.5460818053        7.1783610966       17.8807542013
  O         6.9261783899        2.1192145492        2.5792805013
  O        10.5739863848       18.2755707773       14.4016617990
  O         4.5613889012        2.3622861145       17.7342773903
  O        12.0419468769       19.5531751183       12.6633488963
  O         8.9035304415       16.2612117544       14.5475976483
  O         3.1654956299        2.1241090987        2.9443952279
  O         4.1599943950       16.8775627862       -0.0337958409
  O        18.7651339941       18.3036945401        3.5134477566
  O         7.5541189049       13.2925225252        1.1349076247
  O        18.0996985745        3.8772820752        1.5835987054
  O        15.2526651457        1.7431222437        0.8207459185
  O         1.4263304150       19.7682426849        4.1369554080
  O        20.2610056920        6.6511285208        1.3581071070
  O         8.6812097487        1.9758208422        4.7440328239
  O         9.3758199806        3.8298097900       13.3184172676
  O        21.2233216678       13.9784791781       11.5880312263
  O        13.2718178417        3.0759377532        2.8538038714
  O        14.9659537959       18.5817117384        3.0025850595
  O         2.8325042634       12.1594620454       18.6068020511
  O        16.9528260883       16.8113177857        2.4614435166
  O        17.8226025114       19.7304989164        9.9882331082
  O        14.9502431683       15.2428718792       18.1823884386
  O         8.6168280941        1.3530461542       12.1940957266
  O        15.3033946127        7.3170207848       15.9452782698
  O        16.9285564293       11.0950878649       16.2528265940
  O        16.4872620304       20.3736018679       17.8496717498
  O         1.3855045266        3.6489609106        7.3147135020
  O        17.2290105049       19.9750883290       12.9504133892
  O        15.8403187116        2.1688348339       15.3843734484
  O        10.9198671574        1.2628968725        6.2512263501
  O        12.6058855633        3.2776027540       15.9551822656
  O        16.3254985062       17.9718314349       11.3366257797
  O        17.8961213136        1.5185334629        0.4619051906
  O         1.4620856377       10.2940124892        4.4207181606
  O        20.1032527866       13.4322977735        0.3551140531
  O         3.4247842022       12.1952339190        4.2426275926
  O         9.5476319700        7.9600048580        1.1844136226
  O        19.3269638972        5.6090773295       10.8395351822
  O        13.0128953971       20.0260014006       10.3087497238
  O        19.4287051655       20.2824337320       17.0338499190
 Na        19.4440418665       13.6471400152        2.7048704129
 Na        11.9530880094        4.7694007407        3.7598550776
 Na        15.4658246721        9.4112400685       17.1624828943
 Na         6.2678794288       16.6806776575       10.8498263846
 Na         4.6567082591        8.3588036358        6.0653516650
 Na        17.1674566684       14.0892976444       12.6600496267
 Na         1.7850419030        1.3333617088       11.4697276508
 Na        18.0528935173       13.5181885658        7.6228220461
 Na        18.0121858879       10.4293210968        8.6735602786
 Na         7.9004297268       17.2130396658        5.2625646101
 Na        10.9581065254        4.3371211091       14.8043477503
 Na         1.9590842170       10.1998593800        8.4660173518
 Na         6.5698457878        6.1993187723       -0.1393389544
 Na        10.2946686477       17.9065005421        2.5487607797
 Na        13.1142115548       17.5577402263       16.5042469893
 Na         9.9124655643        1.0433739258        8.5389546640
 Na         8.4748850553        5.0348103811        3.1963404470
 Na        18.5687873284       14.1253182977       15.6998885535
 Na        14.0734136634        3.1142253921       14.0112015757
 Na         5.8534956301       10.5527358422        3.6303089025
 Na        16.4736002708       11.3613309557        1.2509544321
 Na         0.5501804914       13.3314730704        9.7852750955
 Na         6.6043712782       18.8375447949        8.7006567197
 Na        13.9064946871        3.5645820218        0.5550444432
 Na        19.7393034486       17.2542643013        9.6490096297
 Na         4.2212790197       17.1711522578        7.4782788994
 Na        15.9954594705        6.8660128690        4.0841128206
 Na         5.1012916161        7.0187071444       14.0130450561
 Na        12.5677614405        6.1848621627       18.4354880771
 Na        20.4790757862       19.9007765994       -0.3302787593
 Na        13.5250626095       19.3204864735       19.3380063592
 Na        11.4543233613       17.4292394524        6.0049972040
 Na         1.6233421299        6.1828550140        7.7308130257
 Na         8.7372117590        9.9368174354        7.3488213818
 Na        10.9695560503       12.6593764510        5.2566806568
 Na         2.3596222671       13.0033224896        6.9165538789
 Na         3.5646338147       14.4032697592       15.5513950317
 Na         7.5264507295       12.3816362894       10.8288913958
 Na        16.8121413051        5.3917644533       -0.0609704552
 Na        20.5515400584       19.1870760347        6.7304796880
 Na        20.4759225244        5.5415030941       15.9118898664
 Na         5.1506177888       15.3552760688        1.3406437854
 Na        11.1400422162       15.6765496920       -0.8930497676
 Na         3.1055860905       15.5196085711       10.1132426041
 Na         1.3335484678        1.9423168412       15.2761093858
 Na        15.4918659801        1.8367749787        3.1041776228
 Na        18.7091465633        4.9886626630       12.8477739539
 Na        13.5928411058       12.9739959662       18.3959298923
 Na         5.1589057125        4.7506812682        2.7566419888
 Na        14.8493854799        3.4687871875        5.0751202699
 Na        16.0949034115       14.5913191055        2.2199325664
 Na        15.8943647948        6.8764486566       13.6038977086
 Na        14.8530804344        5.1611296163       16.7233819619
 Na        20.2298554531        8.2355990569        5.1518679367
 Na         4.3594544145        4.8373444725       16.0820225826
 Na        20.1569716219       17.6889514443       13.2299440802
 Na         3.1521045362       11.8914277305       11.6389229851
 Na        17.5714642713        6.5753088145       16.3973488018
 Na         6.7844991850        4.4450566809       13.2498559762
 Na        18.1882852051        2.8964903746       17.9824021627
 Na         4.3970793168        1.6905176609        7.5624532283
 Na         7.0657748946        3.1884992993       16.6676133196
 Na        11.1282259139        3.8987596088       11.7784304197
 Na         4.6677154344        5.2312295708       10.5808930375
 Na         6.7210828825       14.0744962799       17.0157928080
 Na         8.7328256628       18.0811171098       12.5857820860
 Na         4.9517434875       10.8274945183       15.4596207464
 Na        10.0332874717       12.4785922722       17.2651253355
 Na        14.4139245663        6.6902637220        1.3485912109
 Na         8.9307703753        9.8254029737       15.5355894632
 Na         4.7619340312        7.7841974189        2.4845757586
 Na         2.1601949914        9.3223971030        2.0957588517
 Na        18.1696147282       15.3921291058        5.1257457456
 Na         9.0065508577       11.4783041210        1.8999280736
 Na        14.7204486934       11.9468315054       14.9909521619
 Na        15.2540441400        3.6759081851       11.2376624867
 Na         2.2930672169       15.7237386418        4.5224434497
 Na        18.1268698897        3.8560146442        5.8514154020
 Si        16.0013132298       18.9498414491       12.6537417587
 Si         8.3712557220       16.9455005004       17.9194397796
 Si        18.5358158064        1.5644306226       13.0624625290
 Si        10.5467454007        6.6843781387        1.6261814964
 Si        10.7872581197        1.8457590734       -0.3292528386
 Si         3.0818747914        6.1459767481        4.9786838456
 Si        20.1216577864        6.6712007305       -0.2566537142
 Si         7.8983531096        8.0636592616        1.6894342976
 Si         2.6993685675       18.2576420119       15.9019488714
 Si         3.7534684762        6.2376669579       -0.3050673238
 Si        19.2311884836       18.8127124030       16.6099599740
 Si        16.9943741368       19.7982117324        6.0980950765
 Si        17.1401905399       11.6749140563       17.7747398208
 Si        18.5730127588        2.3086267897        1.7576272230
 Si        20.4486752247       15.7783344793        7.1820928190
 Si        19.4890381900       16.6714237005       -0.3020079227
 Si         9.2049992599        4.4421053985       -0.0895889970
 Si        19.4816148170        8.1865191194       14.3055756641
 Si         4.3106347174       18.5230392485        0.2798989295
 Si        15.2476428840       15.0879404634       16.5432699537
 Si        15.7262095928       17.6820298906        1.8474854024
 Si        17.6953141973       10.9342193829       14.8090830705
 Si         3.8975387249       16.5527309430       13.4726938714
 Si        20.4371150450        5.7853511731        2.7049501033
 Si        16.0940832458        2.5236892130        8.0812423749
 Si         7.1289040421        2.6617741039        1.1272901733
 Si         1.5185829963        5.2903854189       10.8504699405
 Si        12.6479599669        1.1837554691        6.1441607625
 Si        18.0848301221        1.9910260828       10.1274805310
 Si        19.5288423397        9.8179751317       18.6348662170
 Si        10.0182922883        1.0090020280        4.8146289611
 Si        13.8749613942       16.0222146639       -0.0783968895
 Si         1.9150589264        9.6875544398       16.0703380858
 Si         7.4673524573        1.0660706588       11.0500206827
 Si        16.5920885081       18.6035331196        9.8298939987
 Si        20.0786459019        9.7836156574       11.7061240171
 Si        13.9287214839       20.0835506895        8.9355807465
 Si         3.0234828859       10.6520154866        4.7860186229
 Si         4.3670127568        3.2925553847       -0.3196334019
 Si        16.3283644239       17.8060213303       15.4255732378
 Si         6.1306864798       12.5499398106        0.9956384905
 Si        15.5092716610       20.4302787364       16.5705753664
 Si         4.8337057378        1.4959855374       12.2453802237
 Si         3.0557430319       16.2604764093       18.3204130001
 Si         2.8980481298        1.1446950845        4.2546207768
 Si        12.6351203644        1.7638697376       16.4937404018
 Si        10.0722192774       16.9645817612       15.3580317936
 Si        17.4154693756       16.9421317144        7.4791859687
 Si        18.5570674554       13.7582954359       -0.1018531521
 Si         9.0030312434        2.2997226020       13.5204739553
 Si        17.5407106747        4.9583931595        2.8140581292
 Si         6.5834250915       20.0905282367       14.6582088119
 Si        11.3263752293       19.7247617173       14.1187650324
 Si         7.1622326556        2.4735024435        4.1544812486
 Si         3.6498769544       18.1928189310       10.9278504409
 Si         8.2726727835       19.4828565191        0.3291872057
 Si        13.1846397994       20.4422643510       11.9308704471
 Si         5.5162565524       19.5113964031        5.0503101378
 Si         1.0278222864       11.8319056782       14.0921750960
 Si         1.3730130140       14.5599035873       12.9673037026
 Si         3.5617162536       12.9406514185        2.8419978748
 Si        13.3033858168       18.7230482051        3.4783005047
 Si        16.8354689802        3.4724455608       14.9074242515
 Si         4.7440829129       20.1977298353       17.2463023176
 Si         1.4771803814        2.8096460983        8.7533329198
 Si         4.1831949455        8.8482234265       18.1320922022
 Si         6.6436685970       18.1039015091        2.4234054281
 Si         2.1672200612        2.8870847081        1.8270829200
 Si         1.7386769729       12.1282419827        0.4428349160
 Si        16.3669773090        0.8873990561        0.1121413931
 Si        18.6361781200       17.0143299792        2.5727904604
 Si        12.1279031008       14.7334605978       15.6597972471
 Si         3.3073651694        4.2265031971       13.2007854696
 Si         6.9003939130        9.8799679600       -0.5734606240
 Si         1.8478888738        3.3876334441        5.7336778009
 Si        12.1993903847        1.9014036192        2.4868169621
 Si        19.1691912245       19.7933171210        4.0331400815
 Si         4.0614157441       13.1430293736       18.1341386539
 Se         5.0111415497        9.7947520723       12.6345725049
 Se         7.9645850066        7.1664096318        6.4036587807
 Se         5.4521088412        4.2414903418        8.0207840614
 Se         8.0945704343        6.3277348714       11.0969986253
 Se        10.4477590771        4.0851451523        8.9100564799
 Se        14.2315173320        5.3387008480        9.3440720308
 Se         4.9219771082       13.0865870463        9.3705873374
 Se         7.0035196131       11.6423138496        6.0024609818
 Se         5.2310470403        8.6948462561        8.9011396541
 Se         9.2824768579       10.1014482853       12.4215464685
 Se        11.4664290339        9.7494933059        4.7999077172
 Se        11.3265811777        8.4505529710        8.9414643856
 Se        12.5422318595        6.3702322994       12.8957669117
 Se        10.4385848359        7.2761036911       16.5234114423
 Se        13.6880776994        6.0910797142        5.7639722645
 Se        15.6943609408        8.1160570707       11.2538695949
 Se         9.9961512368       14.9204342692        3.5869179101
 Se         7.2431159728       16.0817223304        7.6677475221
 Se         9.4975668714       15.1419769895       11.5905197708
 Se        11.7120852430       11.0173685819        0.3927226272
 Se        10.0784791509       12.2730721050        8.3053106117
 Se        13.0271077039       11.8302860626       11.4391208351
 Se         8.1577013912       12.4243405345       15.3771410951
 Se        15.2733086384        9.2706602369        2.9206975874
 Se        14.6000542433       10.4351620302        7.4974251059
 Se        16.7220435065       12.7830081152       10.1641469626
 Se        12.6016553037       10.2712406560       15.9004404145
 Se        18.3006529476        7.2744414191        7.3471296967
 Se        10.2795608034       17.5384571802        8.6321339266
 Se        13.7632574671       16.1289553776       11.9059347730
 Se        13.9892049304       13.5029036908        3.8909110914
 Se        13.1272395510       14.7185292441        7.9000559026
 Se        17.4266631644       12.6269882051        4.7611457855
 Cd         6.0198695786        5.4805012655        5.9339879938
 Cd         9.2788511982        6.5410585236        8.7491772872
 Cd         3.4877011550        8.2666062376       10.9722090001
 Cd         8.1784505791        6.0993546601       16.1698914444
 Cd        12.5055064344        4.4706443041        7.3234917739
 Cd         7.7941537032        3.5851988649        8.8717420809
 Cd         4.9709396941       10.9451866975        7.6809304295
 Cd         6.4615923578       13.7909437352        7.2244528411
 Cd         6.9922996856        8.6601752419       11.1150404867
 Cd        10.2103840142        9.1692884489       18.7253665089
 Cd         9.3465355571        8.1534601172        4.5719691838
 Cd        13.0249069797        8.5203925371        6.5320241917
 Cd        10.0501530167        7.5020455874       12.4932194181
 Cd        13.3853633635        7.9002616751       14.9770906300
 Cd        16.0527120251        5.9620981093        7.5516348566
 Cd        13.3364471936        7.5307204400       10.3790520276
 Cd         9.4382118142       14.9000705569        8.8845123737
 Cd         9.0826443919       14.2180688875       13.8942492909
 Cd         6.7741269126       16.7224556654       15.1148903321
 Cd         8.4554580410       15.2472720155        1.6535643016
 Cd        12.7145025279       12.1410793443        8.0018100424
 Cd        10.8219666237       10.6761364022       10.3338875671
 Cd        11.5202659905       11.4570708174       13.7636627168
 Cd        12.6559468015        9.3311630826        2.3695251921
 Cd        15.3628239086       10.9959432752        4.8248507124
 Cd        14.7954669472       14.6431137362        9.9077351657
 Cd        16.4930697869       10.4993932883       11.6864314476
 Cd        17.9989493013        7.0005464507        9.9981883370
 Cd        12.3446064029       15.1826138890        2.6947737003
 Cd        12.0879910235       17.2440503932       10.3049797492
 Cd        14.8595511381       14.5941001902        6.0907141973
 Cd        12.1679879214       14.1577598970       12.0192437912
 Cd        19.5163313441       11.4738412091        5.7442228438
