417
 i =     8100, time =    16200.000, E =     -8967.2188804712
  O        14.4045859473        2.2716398153        8.7737847988
  O        15.6375240390        0.8797626207        5.1010266497
  O         9.5494871119       17.2257505468       16.9047685232
  O         5.8006151105       10.8284664200        0.7800886112
  O         2.7562131327        6.5252066146       10.6112464581
  O         1.7677141479        5.0754111205       12.7085389454
  O        16.1846462700        5.9556063101        2.4329869628
  O         4.9507162107       15.7494440785       14.0988538960
  O        15.2865624306       19.2461104014       16.0493475357
  O        12.8349362067        2.8183585465        6.1330243083
  O        11.6090083461        2.3448120504        0.9608375852
  O        12.9066905772       19.6148129709        5.1122515194
  O        11.7151791324        7.3714205799        1.4321178732
  O         4.7161449196       19.0860343121       -0.7970000245
  O         6.4050772657        3.9248063215        4.5002921861
  O         2.5543970890        1.8268894791        6.0114459142
  O        19.3106041325       16.0217689121        3.3911331887
  O        14.4033459766       19.8683230045       12.3648351296
  O        18.1519325739       21.1928456696        3.3100415354
  O         6.5373602071        5.3404963486       15.6038776187
  O         1.7829118729       18.1000609821       10.7583997871
  O        16.6342601743        2.9343075848        9.5405119172
  O        19.2333563349       11.7758271209        7.9506614030
  O         3.0344466639        2.8517624333        0.8231802231
  O         5.3957834029        9.3577800709       17.8610339930
  O        17.2310616356       13.4195881697        1.2097709731
  O         3.0711630626       10.3120373548        6.5521611237
  O        18.2436287799       19.8697903482        5.5450130533
  O         0.5429328499        8.6782486632       12.6974954903
  O        17.7970424770       12.6484111912       18.0983148073
  O        15.4679433708       16.6516124263       16.0008190925
  O         4.3001554684        6.4495518392        4.6251289601
  O        12.7201704310       19.9461463744        7.7732364889
  O         3.5739454542       19.6327772094       11.9616235290
  O         6.6604421617        8.3441568701        0.5801326814
  O         3.8735256476       19.5377482467        4.2683538801
  O         0.6117266575       11.3005847955       12.5276955030
  O         9.5467943231       19.1452844073        4.3935154153
  O        12.5142604259       19.8598732934        2.5748745227
  O        18.7951351544        6.8142928601       14.4020358081
  O        10.1789072797        6.1317731463        3.3041570228
  O         2.3521707471        6.9100744849        6.4441795038
  O         9.4846705197       20.0521794731        0.4566388148
  O         2.4707449589       18.6628224565        0.6396899475
  O         0.7320730212       14.7476424972        6.1185641611
  O        19.7142478795        8.3086909590       -0.4542965877
  O         3.1605428762        9.4355382790       16.9447913300
  O         2.8821001098        4.4432425175        5.2905433221
  O         2.3456416628       15.6896125567       13.5797611908
  O         3.3363756812       19.5156387070       16.3889451950
  O         1.9912386674       11.0104176285       14.9928752875
  O        17.1666036661        4.5175177858       16.2855256574
  O        18.4245187999        5.9283912022       -0.6884818861
  O         4.9206518119       13.3307005184       19.3444920012
  O         3.1675439146       16.9787752230       16.8629248529
  O         7.8749031039        5.2074743413       18.5633156202
  O        16.8070708709       17.5312342198        8.9528351288
  O         6.7043290357        6.7993096042        2.8113418160
  O        19.1613392184       17.1024141201        0.9727633155
  O         7.7387154387       18.4241409498       18.4474235979
  O        16.4848139435       11.6024530909       13.8512767747
  O        19.0337290346       17.0737408552        7.4117120764
  O        19.8249489826        3.3181558955        5.2039833955
  O        12.8709272958        2.7587573959       12.4172541698
  O         5.0593123169       18.3393441054        1.5807782841
  O         6.9143357698       16.3646658010       17.1023372263
  O         3.2546599625       17.9265449403       14.3082004515
  O         7.7865542498       10.0963972721       18.2352552531
  O        13.4197116404       14.9301217178       15.7906687071
  O         5.7475090154        1.7733317505       11.4405104028
  O        11.3283043240       16.2053854024       15.4943784457
  O         9.6308090811        3.1952945707       -0.6998787104
  O        15.3642038399       11.1717065115       18.4952288841
  O        18.6731788904        5.6386940201        3.4944056918
  O        10.1637434956        5.3874762592        0.6288529962
  O        19.5022898063       20.3263157955       13.3225246808
  O        18.3609398530       15.0097884300       18.7935885086
  O         5.9114102171        1.4613595253        5.0823547718
  O        13.8257266173        1.5757554667       17.2834699521
  O        15.8663713590       19.0428830582        0.6493879537
  O         7.8102423192        9.3070942162        2.9187499875
  O         6.2827226056       18.3126167688        4.0183869664
  O        16.6631412997        3.8545475119        4.0688180903
  O        18.8742986025       12.0533695748       14.8563449805
  O        11.3156396349       13.9874060206       17.0606018950
  O         4.4728659710       12.4175187106       16.7872021842
  O        20.1418480048        2.2156389418        1.6243032041
  O        12.9019445384       17.3288039934       -0.8649377458
  O         1.7214212422        4.1585181352       10.0853319255
  O        20.1736189371       10.6045219962        0.3975852740
  O         6.9331322867       18.8246935578       14.6042889606
  O         1.6220380569       13.2275217980       13.9603289117
  O         3.8019499044        4.5097618175       18.2431049086
  O         1.2391450697        8.5063238480       15.2150776912
  O         6.4794245054       16.2238943682        2.4158812609
  O        14.5321001018        6.4574185982       18.9924893934
  O         2.3124654295        3.6940956340       14.9924040836
  O        18.0960290353        2.9184593135       14.2823978846
  O        20.3234565335       15.2358793800        8.7939352537
  O         4.1990280272       18.2849703902        9.5158287430
  O         1.0278847266       18.1014992546       15.6335569219
  O        17.7847907483       10.1046172245       18.6907470788
  O        15.8875524890       13.9403670600       16.1017417356
  O         5.5699425597        3.4329420983        0.5813036252
  O        18.8653972742       17.4195043340       17.7853855583
  O        17.7616392198       18.2185082136       15.6736192932
  O         1.4636751806       15.9332330688       -0.7378401063
  O        10.1084267550        1.6890600972       14.2418649652
  O         4.0818607431       17.0275915323       11.9497056229
  O        18.1902012604        9.4983413537       14.4934665268
  O        19.9785233808       10.2133699334       17.1631983096
  O        14.9521147505       19.3018157161        9.2385400690
  O        18.5263029961        9.8685203974       10.6602351903
  O         7.4309834455        2.1211927524       14.7570674333
  O        16.0162319700       18.0479348278       13.8379950724
  O         3.7547816112        6.0049546956        0.8949579786
  O         3.3336461937        2.8704832495       12.5321072521
  O         7.7586210754        1.4181200565        9.6762562964
  O         3.6128166616       14.5926097028       17.8050029817
  O         5.7890527368       20.5431929948       16.4589104586
  O        14.7011467283       16.7884927585        1.0902274170
  O        16.9473976347       15.4853963298        7.1324236454
  O        10.6069606675        2.1710417917        3.4458823685
  O         2.3404526710       16.7188273976        6.9408484995
  O         3.6631165669        9.3357932603        4.0947124312
  O         2.9794496912       14.2649601627        2.9521980626
  O        12.7984217288       15.1167983169        0.6412518691
  O         1.6717855809        5.9292809493       18.3812028248
  O        12.3920603060       17.3907308032        3.7142720410
  O         3.2700628009        9.0103772188        0.3278743945
  O         4.2775916773        5.0289006881       13.5555523925
  O         2.0777317924        1.6530094934        9.2147854143
  O        15.9460221788        4.3479833936       13.7052530055
  O         6.9542823186        1.3596800500        0.1568921781
  O         8.7659229897       15.9486012638       -0.2827674377
  O         4.8797721951       12.3624898592        2.5363925567
  O        16.6874854676       18.1047365307        6.4703617422
  O         5.1609187862       18.7723685302        6.4634787662
  O        15.9365202069        3.8883748908        7.2238831093
  O        12.2516325542       20.1088715295       15.5747809363
  O         7.6806722528       18.6457726504        1.7522452245
  O        19.1818555589       15.1170526044       13.0453958694
  O        16.6661279019        1.1939798550        7.5503895581
  O        18.3153316006        2.5753528984       11.5474479962
  O         1.6822185182        4.4358647908        2.5443123804
  O         2.3129193461       12.0270807423        1.8678124779
  O         1.8779580544        9.9586790195       10.6924453597
  O         1.6950296134        6.6297274601        3.8794247933
  O        11.1860312581        1.2776894454       17.9427000137
  O         4.9726441054        1.3435166672       13.9895863411
  O         8.0170535671        3.7502734318        1.2977362354
  O        11.2948253358       13.7898304553       14.3808753094
  O         7.0233426130       -0.6903902732       11.0937012263
  O        19.1011201860        2.7817541219        8.9845648273
  O         3.9426305309        7.1101568772       17.7997480244
  O         6.7061207627        1.9596407265        2.6337187104
  O        10.3499613126       18.5251684525       14.6273302945
  O         4.0741954123        2.0956720332       17.9357851170
  O        11.8022169733       19.6806472231       12.8247273536
  O         8.7948259674       16.3547077509       14.4302669304
  O         2.9257876957        2.3240737756        3.3549701572
  O         4.0761986023       16.6000966726       -0.0622176166
  O        18.8061356727       18.6833323795        2.9982232889
  O         7.1943031160       13.0580229528        1.2544449074
  O        17.8228828442        3.8718291978        1.6376531791
  O        15.1925338954        2.2152528608        0.9696332442
  O         1.1465481917       19.9773316095        4.2356749506
  O        20.0654417826        6.5781111735        1.4238916618
  O         8.4770303300        2.2312170907        4.8670097873
  O         8.8579225959        3.7444269991       13.2596026705
  O        21.1937318371       14.1020320835       11.3853071980
  O        13.1468158090        3.1502133248        3.0099491209
  O        14.7656322648       18.5633490379        3.1160741628
  O         2.5204558201       12.2740719629       18.5820432112
  O        16.8987117699       17.0120634337        2.3692285171
  O        17.8036205168       19.8852686867        9.8110014426
  O        14.7534902720       15.2916602327       18.2170663683
  O         8.3035511762        1.2810342408       12.3080658296
  O        15.0122984406        7.5004517413       15.7905640583
  O        17.0205380211       10.8806177501       16.3277267692
  O        16.3592758812       20.8084899246       17.9417945192
  O         1.6338708172        3.7283803965        7.5157112194
  O        16.7673528663       20.4357608113       12.8543150033
  O        15.5921457005        2.5327167616       15.6252471415
  O        10.7323751349        1.1858645842        6.1298165443
  O        12.2322043819        3.3804399321       16.1493475828
  O        16.2899712528       18.3966868755       11.2609496260
  O        17.9006881607        1.5272801012        0.5760128325
  O         1.0624223725        9.9395139715        4.7316671386
  O        19.8648138790       13.2300948220        0.3917292567
  O         2.9161462494       11.9350281474        4.4790276821
  O         8.9995783762        7.5308122417        1.2974225413
  O        19.4446309341        6.0931223191       10.8993184317
  O        12.7123965989       20.3187736936       10.3466907671
  O        19.4346129100       19.9871975044       17.0996254657
 Na        19.8819865581       13.8291475378        3.2228000832
 Na        11.3848480856        4.3105278150        4.3107543528
 Na        14.3332789683        8.8162739366       17.8419191102
 Na         6.0214268298       16.7429662743       10.6645974755
 Na         4.3759531498        8.3428345116        6.1936826637
 Na        17.3186802708       13.8136537550       13.3300195839
 Na         1.3355218914        1.0702369939       11.4097375865
 Na        18.2750462350       13.8641327584        7.8131518154
 Na        17.3981661979       10.5793906110        8.6170807110
 Na         8.1495377646       17.4382721044        5.1387898322
 Na        10.4327711890        4.5047493553       15.2001543909
 Na         1.7384849392        9.9517890025        8.3250581906
 Na         5.9746313340        6.0094008507        0.2777038972
 Na        10.0910600597       18.1298941270        2.5094678384
 Na        12.9058549849       17.6784177599       16.2761444025
 Na        10.0471467221        0.9031379878        9.2349483613
 Na         8.2197629625        5.0847116166        3.5519697746
 Na        18.3313634482       13.9949099109       16.4223359182
 Na        13.6295596687        3.6049183470       14.3006347279
 Na         5.8175705409       10.4486051839        3.6673269446
 Na        16.0272897236       11.5813306764        1.2810382291
 Na         0.5965054847       12.8572425847        9.7130056798
 Na         6.5177489791       18.8129138312        8.4525752426
 Na        14.5158018013        4.4216417869        0.9780749274
 Na        19.1810488228       15.7552849676       10.4975402750
 Na         4.3089175780       17.1453118983        7.5462727715
 Na        16.2140319678        7.2617302437        4.2979261604
 Na         4.9562764301        6.7368031212       14.8082796126
 Na        11.9394380275        6.1798758871       18.4690189318
 Na        19.9763219474       19.4220879036        0.0009804513
 Na        13.3942464801       19.5768406606       19.3526199448
 Na        11.2550387686       17.4890249767        5.6064330983
 Na         2.7220001974        5.7858769056        8.3348100119
 Na         8.8774950081        9.7115488646        7.3466794935
 Na        11.0511546585       12.9312639163        5.3865079714
 Na         2.2594576890       13.0980906166        6.8056784837
 Na         3.8236863274       14.0048250632       15.0631469992
 Na         7.5392773577       12.3820892958       10.8286849478
 Na        16.6396331319        6.9179209120        0.4859819904
 Na        20.3604676539       19.0370223512        8.0726924748
 Na        20.2950739582        5.5726079574       15.7176000014
 Na         4.6430105058       15.2017973886        1.7946711018
 Na        10.9768793961       15.7526673288       -1.0698332794
 Na         2.8964741253       15.5243416132        9.8414692514
 Na         1.3027950430        1.7361078274       15.2828021171
 Na        15.4959661680        2.0414310984        3.1574478924
 Na        18.7905548778        4.9619075331       12.9277116695
 Na        13.0761580896       13.2086501191       18.6089475289
 Na         4.6064419929        4.5916579424        2.8823459100
 Na        14.9802800344        3.1403490292        5.2648363878
 Na        15.7907022417       14.8698075291        2.1957040873
 Na        15.9369775433        6.5844318506       13.8745997868
 Na        15.1551180483        5.7266374614       17.0213090344
 Na        19.8558688865        7.6971481483        5.6369120061
 Na         4.6371341082        4.0603842830       15.8641287765
 Na        19.7664042286       17.7848375845       13.2496391821
 Na         2.9469301813       12.0553918327       11.5210527166
 Na        17.3570425682        7.2064724389       16.3884522662
 Na         6.7443471592        4.6214133249       13.4793423550
 Na        18.2068494988        3.7875102181       18.0900861305
 Na         4.0618698436        1.2164146979        7.7257371838
 Na         7.2727798661        3.0847444883       17.0273372949
 Na        10.8833403093        3.9663717228       11.7244445783
 Na         4.8064189426        4.9889592511       11.0147373078
 Na         6.4861973048       14.2202575572       17.8014602780
 Na         8.4724813041       18.1608817472       12.7906308828
 Na         5.1820095140       10.5869510623       15.8911255035
 Na         9.4842627063       12.7479081596       17.5660826674
 Na        13.8628545508        6.7158392894        2.0881908655
 Na         8.5354504712        9.9687998651       15.6822012398
 Na         4.2016703464        7.7303250345        2.4917121817
 Na         1.7257107821        9.3975588488        2.2021635443
 Na        18.1758884175       15.3012277241        5.2956201183
 Na         8.9669810922       11.4375338726        2.4819523773
 Na        14.6767691681       12.1833253844       15.2602065054
 Na        15.2939740000        3.3322472071       11.7783089884
 Na         2.2542592239       15.8379642171        4.5060906537
 Na        18.1175414092        3.9418333574        6.1865743691
 Si        15.8105666184       19.1443320988       12.6642846789
 Si         8.1927027710       16.8999687426       17.9220585768
 Si        18.1909781472        1.7810779098       13.0230460976
 Si        10.3484919371        6.6469902789        1.7841599666
 Si        10.4654599411        1.9089402141       -0.0908114758
 Si         2.7808480212        6.1238932307        5.1002463527
 Si        19.7670348114        6.6185401086       -0.2018269375
 Si         7.4802708848        7.9496364878        2.0384897991
 Si         2.6512497956       18.1237875569       15.7914043938
 Si         3.2734995640        5.9819046315       -0.6217319713
 Si        19.0765219703       18.5540472971       16.5553612573
 Si        16.6931991267       19.7141915955        6.1003350220
 Si        16.8674127874       11.2475733267       17.9201197678
 Si        18.4515395980        2.4170113105        1.8575284721
 Si        20.3828744494       15.8541195184        7.2728608592
 Si        19.2995496694       16.3811899094       -0.4954881491
 Si         8.9342661779        4.5025515029        0.0852081984
 Si        19.2936327560        8.3093298394       14.1741929877
 Si         3.9366712743       18.2708735644        0.4028103676
 Si        14.9041111090       15.1028313638       16.5181084004
 Si        15.6258128395       17.8475438513        1.8269397466
 Si        17.5894236130       10.9796270211       14.8297524401
 Si         3.7394249252       16.5154826925       13.4825644122
 Si        20.1764416624        5.7635977638        2.8216054971
 Si        15.8615737017        2.5608807594        8.1242798811
 Si         6.8136610118        2.6338962021        1.2115376975
 Si         1.6002747389        5.5204226905       11.0697069226
 Si        12.3830058196        1.3063547002        6.2346674178
 Si        17.9542000652        2.1674641026        9.9927636589
 Si        19.4124134883        9.8264837983       18.6123519592
 Si         9.8293210899        1.3134112548        4.7353301934
 Si        13.7438475662       16.2258900328       -0.1239144163
 Si         1.7719758383        9.7874264783       16.0987970364
 Si         7.1481870441        0.8917527455       11.0535308364
 Si        16.4499116112       18.8802098064        9.6944238172
 Si        19.8526389965        9.8989061487       11.5891671695
 Si        13.6985031407       20.2805716419        9.0326473935
 Si         2.6975054225       10.2977603941        4.9764506449
 Si         4.1165099716        3.2021720653       -0.3085988563
 Si        16.1630703347       17.9938870207       15.4453118635
 Si         5.6843506474       12.4623313999        1.0995378801
 Si        15.3184820088       20.7316312262       16.6774657533
 Si         4.4240071458        1.5204559501       12.4484009501
 Si         3.0641778241       16.0200231777       18.1922493330
 Si         2.6382883179        1.1731864619        4.4731002090
 Si        12.2757603156        1.9063173029       16.7689429711
 Si         9.9096357226       17.0649573463       15.3126889283
 Si        17.4354882415       17.0480256687        7.4303479562
 Si        18.2307686557       13.5648629040        0.0403664097
 Si         8.6635828252        2.2251688392       13.5946125025
 Si        17.2197538270        4.8533329590        2.9704125570
 Si         6.3433279677       20.2945965017       14.9127949118
 Si        11.1728244821       19.8588929368       14.3236225891
 Si         6.8966457085        2.4326715700        4.3089188539
 Si         3.3851812275       18.3115991766       10.8983934510
 Si         7.9224751070       19.4261173225        0.3132740513
 Si        12.9274551294       20.5981785628       12.0384614981
 Si         5.3076611605       19.2651006984        4.9833430326
 Si         0.9218895597       11.7882154505       14.0416766173
 Si         1.3051367073       14.5891841547       12.8588454764
 Si         3.2861899968       12.6979879366        3.0244587777
 Si        13.1805533454       18.8247577412        3.7026609749
 Si        16.7429125950        3.6637802949       14.9999775592
 Si         4.5301734719       20.0517320855       17.3420134152
 Si         1.3514628672        2.9665956807        8.9833232097
 Si         3.8404899323        8.7772569991       18.2582937766
 Si         6.3209752042       17.8120263443        2.4059156659
 Si         2.0604564670        2.9073206517        2.1055289282
 Si         1.5192701772       12.0571205070        0.4428660656
 Si        16.2704713463        1.2935253968        0.2377888046
 Si        18.6307845949       17.1700385658        2.5141659783
 Si        11.7723075800       14.5870974406       15.6765176629
 Si         2.8991558110        4.1561478680       13.5271339950
 Si         6.4660329157        9.7269841057       -0.3064698395
 Si         1.8111678019        3.3629551518        5.9553271939
 Si        12.0280065306        2.1026404592        2.5895079537
 Si        18.9522164478       19.9655285706        4.0661545264
 Si         3.8364005497       12.9950992023       18.0835002727
 Se         5.0412099229        9.2215688260       13.3464743856
 Se         7.7718779435        7.3568097475        6.5144758824
 Se         5.2026455613        4.1166436709        8.1964448354
 Se         8.0225993551        6.4595829699       11.3211037054
 Se        10.0606584856        4.1041131938        8.7269874920
 Se        14.0673366377        5.2302575649        9.8476862411
 Se         4.4978941665       13.0053172393        9.3667656144
 Se         6.8712078882       11.5501122382        6.1437564180
 Se         5.3705314140        8.5115695403        9.2081831041
 Se         9.4279373618       10.5326610664       12.5869337730
 Se        11.0291058054       10.0485233745        4.8954323480
 Se        11.2661560837        8.4092349631        9.0870676658
 Se        12.2220383647        6.7499689339       13.1880269833
 Se        10.1428695378        7.8184343853       16.4787627015
 Se        13.5184532483        6.3163980807        5.8549245788
 Se        15.5920737776        8.2716561984       11.5836228259
 Se         9.7779802292       14.9942987956        3.6486405278
 Se         7.1550940022       16.1184016749        7.7488613730
 Se         9.1871522684       14.5045040236       11.4979984227
 Se        11.0967211101       11.2747487476        0.5888961982
 Se        10.0044166598       12.4944491418        8.3739489856
 Se        13.1543494743       11.6869282511       11.7049129756
 Se         7.4738983509       12.5753522649       15.4168236612
 Se        15.0080662805        9.3564235762        2.9300548664
 Se        14.4862975441       10.5254092276        7.5715506910
 Se        16.8364509005       13.0450838643       10.3978670230
 Se        12.4813082297       10.5498104369       16.0987546624
 Se        17.4785962380        7.5991187413        7.5222045562
 Se        10.5860168348       17.5432745069        8.4436498958
 Se        13.6566681898       16.3196764983       12.1807325787
 Se        13.8513396932       13.8437288908        4.1667154269
 Se        13.2492825286       14.7516952021        8.3005892311
 Se        17.2865132471       12.5471237039        4.5136549266
 Cd         5.7330691155        5.3774100443        6.0279088160
 Cd         8.7795877247        6.4798092479        8.7985872124
 Cd         3.5130932918        8.4863344027       11.1480575555
 Cd         7.8640794777        6.6854288440       16.5739893012
 Cd        12.6231319157        4.5409904889        7.7265182739
 Cd         7.5725070053        3.6190670691        8.5395563235
 Cd         4.8748516711       10.8624904410        7.8546759639
 Cd         6.3381617731       13.8057984342        7.2674030471
 Cd         6.7894315546        8.7651517063       11.4409192205
 Cd         9.6976294422        9.1601757539       18.9220023814
 Cd         9.3423494141        8.1519740058        4.5014523565
 Cd        12.8040309124        8.8109675686        6.4845559789
 Cd         9.9327518782        7.8084992238       12.5388255852
 Cd        13.4526064318        8.4372231871       14.9028721784
 Cd        15.4011297856        6.0395117237        7.8593256943
 Cd        13.2223416424        7.5516074607       10.7132627028
 Cd         9.6246547277       15.1631200499        8.9400807345
 Cd         8.8977003973       14.0838436971       14.0399068859
 Cd         6.7187185061       16.6869228252       14.9611454887
 Cd         8.2032600430       14.9302511111        1.6365098470
 Cd        12.8771892201       12.2697914797        8.4216306618
 Cd        11.0847985490       10.5750789533       10.4216131363
 Cd        11.5459759010       11.2538021702       13.8581313804
 Cd        12.2732179140        9.6649661699        2.4138093080
 Cd        15.0896975773       11.1863465367        5.0449654045
 Cd        14.8130700156       14.6140145195       10.4226275072
 Cd        15.9955269617       10.7748952186       11.7758963059
 Cd        17.9203508756        7.5219017265       10.3340613120
 Cd        12.2225870586       15.3421780916        2.8499641723
 Cd        12.4062729103       17.3346404544       10.2053889689
 Cd        15.0607640217       14.5782184901        6.5186186996
 Cd        11.7727414159       14.2473399362       12.1021253291
 Cd        19.0862075016       11.4447689214        5.8867442096
