417
 i =     9800, time =    19600.000, E =     -8967.2433888270
  O        14.3140629642        2.0999169791        8.7463710888
  O        15.9870395257        1.6962923112        5.0406514429
  O         9.5689562269       17.1525978692       16.8517840234
  O         6.0196383699       11.0166561629        0.7735933170
  O         2.8270472456        6.2770329630       10.5445319461
  O         1.8046926806        4.6608256413       12.4979241292
  O        16.7868048668        6.3046168334        2.0244043481
  O         5.2078609439       15.6998871281       14.0824490985
  O        15.3484697553       19.2550185464       15.7588960898
  O        13.0676932806        2.6305190867        6.1586276887
  O        11.7741401913        2.2007889515        0.7757249247
  O        13.3562164333       19.5979546490        4.7954883263
  O        11.8511656323        7.3404782415        1.1771775999
  O         5.0994845057       19.1993287518       -0.8283860519
  O         7.2659794843        3.9117327572        4.6169538859
  O         2.5454792732        2.0372868355        5.7779921970
  O        19.4516576269       15.7518489011        2.9936956142
  O        14.5634092071       19.3694729012       12.1696122373
  O        18.1449636687       20.7263598558        3.1163373340
  O         6.5952743804        5.1158630250       15.4497182210
  O         2.0544340140       18.0287839862       10.9279204237
  O        16.6291565500        2.8089946324        9.6826692595
  O        19.8388542693       11.7046632567        7.7432358861
  O         2.9945068034        2.9069704067        0.5524693142
  O         5.4966638608        9.6210369712       17.7395774812
  O        17.4597188773       13.4645832954        1.1769834857
  O         3.3773532322       10.2852447270        6.5739621081
  O        18.4924585791       19.9726921773        5.6806333669
  O         0.7204311936        8.6767566883       12.7669777148
  O        18.0230907113       12.9412487785       17.9227289795
  O        15.8104529011       16.7443507119       16.1764960025
  O         4.5788995593        6.3079269812        4.9521178851
  O        12.9315215754       19.6491433317        7.3686742455
  O         4.0718919360       19.6599378399       11.4392106464
  O         6.6964838194        8.5672516423        0.3867517715
  O         3.8193527313       19.4350252829        4.6031825502
  O         0.8448122555       11.2356344412       12.5592276313
  O        10.1417541681       18.8325792338        3.9806394661
  O        12.8436867577       19.8505367089        2.3361057274
  O        18.9434242762        6.8053201679       14.3465131923
  O        10.0386582842        6.4680043851        3.0513295771
  O         2.5501725558        7.1403210287        6.4495217921
  O         9.7491376678       19.9176640391        0.2274411369
  O         2.6439402492       19.1118710824        0.4840436365
  O         0.7226538440       14.7379436776        6.0004962877
  O        19.1633676940        8.2092529173       -0.7079996131
  O         3.2257635748        9.4890160911       16.6374531669
  O         2.7638804845        4.6173147885        5.2247605185
  O         2.6426930074       15.6760226419       13.4900260074
  O         3.3580333938       19.6335596697       16.4467412856
  O         1.9822786207       11.0112394441       14.9814509679
  O        17.2782239326        4.5572561376       15.9611516361
  O        18.8439827431        5.5868164423       -0.7712595997
  O         5.0145786271       13.5576530894       19.5460412931
  O         3.5716656992       16.9440408748       16.8743625976
  O         8.0099327783        4.9337884927       18.4302429719
  O        17.2795607892       17.4033775804        8.7234751051
  O         6.8043318967        6.7919222835        2.2679186436
  O        19.0930155350       17.5548335804        1.0116149302
  O         7.9370772295       18.4780996188       18.3953523807
  O        16.5111127402       11.3630760412       13.7940653839
  O        18.9924548933       17.0948026120        6.9797086384
  O        19.7336878182        3.2760014736        5.0175747408
  O        13.1455223349        2.4056845722       12.0418662598
  O         5.1771515646       18.7661615234        1.7613533486
  O         7.1791680177       16.0546593799       17.2496479706
  O         3.5047549276       17.9775223183       14.3996623183
  O         7.9707894584       10.5625552413       18.3557420750
  O        13.7564590803       15.0536428713       15.5920095266
  O         6.2639807186        1.7814837431       11.4278428574
  O        11.5474942089       16.1098361721       15.4918965610
  O         9.8239164411        3.0672858341       -0.8156742917
  O        15.5069348840       11.5333646179       18.4472895655
  O        19.0548786224        5.7996805588        3.4205562828
  O        10.2458365091        5.2797971605        0.6599221634
  O        19.7733179885       20.1669695243       13.1892142472
  O        18.6966439682       15.2785710831       18.7217663205
  O         5.9209238896        1.5790804298        5.0676085085
  O        13.9279301900        1.3674022934       17.3165301918
  O        16.5498093335       18.8631818299        0.7442946069
  O         7.8385788093        9.2265477094        2.7965071497
  O         6.4589466597       18.5590917599        4.0733321216
  O        16.7348075258        5.1625617140        4.3716457679
  O        18.8423799675       12.0651090511       14.8183194446
  O        11.6556711986       13.8142350944       16.9412940945
  O         4.5412684839       12.8279162069       16.8980454137
  O        20.1539804935        2.3750417979        1.6781380932
  O        13.1153129323       17.2620219067       -1.0037048981
  O         1.8688932095        3.9599723859       10.0288552817
  O        20.1907047820       10.5103188376        0.4572797009
  O         7.3395890621       18.6782573169       14.5343794329
  O         1.5090914000       13.3853584408       13.9128316845
  O         4.0458961729        4.7996268909       18.2955522633
  O         1.3821913439        8.4016387940       15.2576420146
  O         6.6448871729       16.4951745364        2.3622680440
  O        14.5125267032        5.5597156847       18.9745606692
  O         2.6770918407        3.6630246775       14.7602913198
  O        18.0005915055        2.5557689983       14.1502888403
  O        20.3360560014       15.2988024142        8.5975563575
  O         4.4283901089       17.8245231545        9.4491662551
  O         1.2459741180       18.1261054737       15.6705826953
  O        17.8194786495       10.4647343701       18.6613602399
  O        16.2728025480       14.2671082288       15.6262317903
  O         5.6786529019        3.4225565554        0.6153406272
  O        19.0608960461       17.7264801029       17.7631002339
  O        18.0130345174       18.3139900193       15.4772816900
  O         1.7030044044       16.5296746118       -0.4810008406
  O        10.3070393755        1.5318135985       14.3127440200
  O         4.3097720309       17.0591689086       11.9860073244
  O        18.3369033122        9.4095667633       14.7871605442
  O        20.1086730625       10.3299511621       17.2259430944
  O        15.0860317573       18.8738926582        9.0366896743
  O        18.7264744258        9.8016780387       10.7312159006
  O         7.6965979681        1.9852900975       14.4964486532
  O        16.1219608737       17.7503871522       13.7360965502
  O         3.8332270162        6.2155178553        1.0155386126
  O         3.7223796532        2.6296662955       12.4084646726
  O         8.1911565934        1.4151625514        9.4427832235
  O         3.2673104283       14.7393953785       18.3542533454
  O         5.9593107924       20.4835805920       16.3044997869
  O        14.9510689877       16.7588971684        0.8771700691
  O        16.7360723888       15.8489781520        6.5670430478
  O        10.7554046287        1.9014046156        3.2677575933
  O         2.1947819426       16.7809466615        6.6936372089
  O         4.0024888927        9.3965792967        3.9680464700
  O         2.9188260804       14.2483475785        3.2800239731
  O        13.0494485164       14.9755550763        0.4674260427
  O         1.8645214874        6.3752244981       18.3417372735
  O        12.6166708144       17.3140575819        3.5409477323
  O         3.1619346654        9.0246279337        0.0092132112
  O         4.3214920346        5.1900407356       13.1446938001
  O         2.0920522012        1.5199578264        8.8514918111
  O        15.9820312057        4.1524479581       13.5230540541
  O         7.3109636948        1.4231861671        0.0716836107
  O         9.1112531158       16.1293631080       -0.1709643471
  O         4.9163936074       12.5766435761        2.5357800398
  O        16.6636759323       18.4338090756        6.2332347900
  O         5.4477068107       18.8850296924        6.6381664327
  O        15.8522180842        3.9931106903        7.3847890627
  O        12.5213716597       19.8492522644       15.3595921429
  O         7.8601231722       18.8274264437        1.7203824343
  O        19.3945853278       15.4444512977       13.1297357320
  O        16.6834553074        1.4724005642        7.4965653521
  O        18.5573374212        2.2738714443       11.5082304805
  O         1.8881901591        4.6044546124        2.2793760038
  O         2.3353301049       11.9213761747        1.9326365785
  O         2.0331390636        9.8022204179       10.6019596706
  O         2.2958502067        6.7123303929        3.6357597145
  O        11.4112447773        1.2468528276       17.6336204606
  O         5.2650140431        0.9618480522       13.7587538744
  O         8.2814498800        3.6343972141        1.2874571266
  O        11.6478197121       13.8166370415       14.1615138008
  O         7.4528105629       -0.6286718171       11.0539636800
  O        19.1182577708        2.5658254185        8.9796105313
  O         4.3203037204        7.2664297289       17.7926979042
  O         6.7734799222        2.1180080036        2.6339764207
  O        10.5517915068       18.1950447806       14.4872070109
  O         4.4239364278        2.3655140109       17.8247452802
  O        11.9658424693       19.3544890791       12.7168638995
  O         8.9280502892       16.1659586925       14.4207492284
  O         3.0820053575        2.3007403388        3.0806104137
  O         4.3261086292       16.9837823601        0.0786308710
  O        18.8573311242       18.2063813083        3.6519396699
  O         7.3943604103       13.1139336219        1.5722902502
  O        17.8075874040        3.7541673236        2.1657210251
  O        15.2664681014        1.8101963931        0.6238231250
  O         1.2887769263       19.8307603634        4.0302169521
  O        20.1454981074        6.9045635214        1.3554170803
  O         8.6090025259        1.5858166851        4.5861161878
  O         9.3026296981        3.7175596515       13.3413847442
  O        21.2457869578       14.1929029602       11.3853258754
  O        13.2201290923        3.1278142679        2.9752306009
  O        14.9413690522       18.5128941337        2.8102871554
  O         2.6614987985       12.1696552380       18.7007870119
  O        17.0456056747       16.7867725323        2.4646041145
  O        17.6305039255       19.7942684789        9.8238963640
  O        14.7756898079       15.1282068926       17.9823612046
  O         8.8321111860        1.3699382303       12.1254412688
  O        15.4384767295        7.2660188804       15.9523387618
  O        16.8151668871       11.1589119664       16.1994028752
  O        16.5180037492       20.4007141312       17.8769987670
  O         1.5272028140        3.8437896949        7.4251615406
  O        17.0092325356       20.0049161939       12.7216770363
  O        15.7507437158        2.4771076670       15.5509213187
  O        11.0112935317        1.0723867015        5.7418494466
  O        12.3963376423        3.2154635935       16.0241651310
  O        16.5320793051       17.8748225133       11.0921986414
  O        17.9595250270        1.7544792622        0.5029810630
  O         1.4374728583        9.8536958002        4.7254939385
  O        19.9255473572       13.1598427063        0.3410256278
  O         3.2465390295       11.8057815302        4.3767548025
  O         9.0689346434        7.6386108234        0.8827745816
  O        19.5112345466        5.9714619260       10.9640343924
  O        12.8228955228       19.9228694341       10.1352463602
  O        19.5203865834       20.3563390414       16.7766750456
 Na        19.6276674822       13.5484076149        2.7578690383
 Na        11.4949828483        4.7733291877        3.7975557673
 Na        15.1106102227        9.4032072686       17.8221537889
 Na         6.2384281519       16.9067805767       10.6354359502
 Na         4.7819308037        8.2529421734        6.2083653250
 Na        16.8534597772       14.6995156698       13.1574490878
 Na         1.8128371954        1.2571473771       11.3029488127
 Na        18.3075388861       13.7121596212        7.3413287012
 Na        17.9733708756       10.4599322156        8.6326909244
 Na         7.7912213380       17.0447815826        4.9357105296
 Na        10.8829889275        4.4301215498       15.1378808346
 Na         2.0114193115       10.0506068934        8.2659834834
 Na         6.3128729511        6.4048622060       -0.2769590898
 Na        10.2874988107       17.9015311905        1.8744594475
 Na        13.4891562104       17.7265668995       16.1226435809
 Na        10.0836063237        1.1052078385        8.3802342621
 Na         7.9901541327        5.1718531598        3.0756176216
 Na        18.5852174839       14.1280413417       15.6743860486
 Na        13.6992912362        3.1285009698       14.1537481286
 Na         5.9591474291       10.7434726762        3.6910058515
 Na        16.5617631465       11.5156340468        1.4332052344
 Na         0.8555778935       13.0009577632        9.6259934401
 Na         7.0010245401       18.9089764310        8.3557687161
 Na        14.0121674830        3.6600689512        0.6545611095
 Na        19.3154485773       16.4350171242       10.3105224097
 Na         4.1500559194       17.2387494362        7.1639596445
 Na        15.9534207597        7.3580338378        4.5031975628
 Na         5.2552122204        6.9140452060       14.4014115663
 Na        12.2671790303        6.2636097663       18.3801066471
 Na        20.1117042411       19.7544629374       -0.0862962331
 Na        13.6756199899       19.3496829047       19.2452135665
 Na        11.3983157787       17.3596597619        5.7230600496
 Na         2.9048633117        5.7285594279        8.1561143236
 Na         9.3060202547        9.9537658607        7.0822856447
 Na        11.2160117635       12.7732120637        5.3846089863
 Na         2.3550863148       13.0091371409        6.3515473069
 Na         3.8210271078       14.2581766658       15.1797337772
 Na         7.5433988218       12.3859539074       10.8334586388
 Na        16.8388826871        5.2410325823       -0.0067266704
 Na        20.5820803687       19.0804535186        7.3460626519
 Na        20.7313021716        5.7201131919       15.4691612630
 Na         4.5435674513       15.5785880901        2.1193221649
 Na        11.1332775402       15.5325620219       -1.0793255177
 Na         2.9499461797       15.7010116114        9.7419054258
 Na         1.7133783195        1.5625126176       15.1020148238
 Na        15.2500035840        1.5548574454        2.8405685828
 Na        18.7099113177        4.9755238592       12.8509536620
 Na        13.5407546444       12.8738243426       18.6511110214
 Na         4.7757395306        5.0414626653        2.8728161765
 Na        14.7313916889        3.9183960731        5.0488747391
 Na        16.0740170618       14.7422563706        2.0326458067
 Na        16.2648712615        6.5805408150       13.9761570752
 Na        15.0920938724        5.2050919579       16.8824502854
 Na        19.9863536757        7.7001600093        5.5299467054
 Na         4.5796281401        4.0935518222       16.0684543944
 Na        20.2639275857       17.9607703794       13.1706968450
 Na         3.1332607883       11.6364198121       11.7733418954
 Na        17.5556647255        6.7263671858       16.6747821345
 Na         6.9877479465        4.1198565157       13.4139898625
 Na        18.4957965200        3.0582575856       17.2167376291
 Na         4.1860326243        1.1047963832        7.9405787352
 Na         7.7479764747        2.8138766343       16.8009315287
 Na        11.1318396151        3.9200085628       11.4481423399
 Na         4.9107282616        5.3954994975       10.7861371779
 Na         6.6906601915       13.9007853744       17.4311767336
 Na         8.9607164498       17.8357836820       12.3928977396
 Na         5.3326791932       11.0200478534       15.7635011936
 Na        10.0800776988       12.2962034647       17.2437180724
 Na        14.5234535988        6.7102534456        1.5105635437
 Na         8.3715968654        9.8277864549       15.2596180517
 Na         4.7988569318        7.6791201502        2.6887340023
 Na         2.2460277841        9.0884542650        2.2437071900
 Na        18.2290508242       15.2607209202        4.9247267637
 Na         9.0342857375       11.6403858037        2.3381235592
 Na        14.9966573614       12.0947426011       15.1159335770
 Na        15.1871417255        3.3810563800       11.4266869633
 Na         1.9069795275       16.0883252295        4.3901635802
 Na        17.7490606600        3.8660990842        5.9209464130
 Si        16.0512916833       18.7434932267       12.4215019483
 Si         8.4083757511       16.8853490551       17.9854794633
 Si        18.3618577518        1.4981044788       12.9658612881
 Si        10.3929488747        6.7488854836        1.5421397393
 Si        10.6920190193        1.7968204679       -0.3782929520
 Si         2.9754999721        6.2444455425        5.1488101178
 Si        19.8176170016        6.7168928257       -0.2602756315
 Si         7.5947626122        8.1296667398        1.7016467452
 Si         2.8996411344       18.1482380297       15.9179164739
 Si         3.4630219739        6.2907793899       -0.4932029535
 Si        19.2819595750       18.7825234803       16.4280423360
 Si        16.8296315276       20.1701719880        6.0522262492
 Si        16.9661163765       11.6373237964       17.7873962315
 Si        18.5220198671        2.3561284359        1.9570351990
 Si        20.2914480783       15.9018800971        7.0955530777
 Si        19.4613654200       16.7138023120       -0.3913444539
 Si         9.1012177015        4.3031293648        0.0057497121
 Si        19.4068557223        8.2857463685       14.1892560851
 Si         4.1648583586       18.6483335880        0.4647397060
 Si        15.1972250421       15.2002949303       16.3600833043
 Si        15.9158806682       17.7302751025        1.7098203628
 Si        17.6335127274       10.8964188171       14.8212158759
 Si         3.9788152583       16.6066385751       13.4669319343
 Si        20.5148370655        6.0020882139        2.6676295712
 Si        15.8063540710        2.6826590292        8.2033359158
 Si         7.0325134013        2.6418132357        1.1652420185
 Si         1.6387412222        5.3158444129       10.9692455767
 Si        12.6463946082        1.1056191439        5.9837659989
 Si        18.0486402985        1.9858440460        9.9654691036
 Si        19.3387225391        9.8290885926       18.6323502904
 Si        10.0431531119        0.9361240954        4.4723907511
 Si        13.8986240548       16.0631504411       -0.2899316703
 Si         1.7755060915        9.7623239551       16.0518056952
 Si         7.6835229397        0.9559620380       10.9038338869
 Si        16.6081062338       18.5464828369        9.6166233641
 Si        20.1067738196        9.8337983870       11.5202319234
 Si        13.7729159328       19.9398523731        8.8168762990
 Si         3.0473653458       10.2658912639        4.9290741926
 Si         4.2428300208        3.4048800299       -0.3347888141
 Si        16.3994919087       18.0518301930       15.3203708862
 Si         5.9494386954       12.5846780774        1.1862599481
 Si        15.4652187659       20.6612927854       16.6387682699
 Si         4.8957905218        1.4291928694       12.2564431835
 Si         3.2410534657       16.3594693327       18.3681029289
 Si         2.6983671595        1.2377512518        4.3163885243
 Si        12.4953421829        1.6479567616       16.5204001615
 Si        10.1028614716       16.8630702380       15.3216518403
 Si        17.4132614303       17.2428577338        7.0455043066
 Si        18.4017603192       13.7452511454       -0.1016048336
 Si         9.0404107851        2.1977879391       13.4670558601
 Si        17.4983562190        5.2816840982        3.0216326537
 Si         6.6629532427       20.0946717776       14.7276258567
 Si        11.2958763794       19.6111638035       14.2183160075
 Si         7.1745451181        2.3572909617        4.2934601750
 Si         3.6249708182       18.1861393275       10.8376348896
 Si         8.1837584410       19.4695137466        0.2808062922
 Si        13.1348371163       20.1912553835       11.8100805695
 Si         5.4300951263       19.4236992957        5.1423593352
 Si         0.8936836310       11.8868389944       14.0719835548
 Si         1.3805036043       14.7191398562       12.8560622442
 Si         3.3144504606       12.7278087933        3.0406606393
 Si        13.3933127687       18.6889378256        3.3725048610
 Si        16.7597610228        3.5581182092       14.8001356112
 Si         4.6931189318       20.2300837365       17.3534568874
 Si         1.3996450465        2.9311635829        8.7798836699
 Si         3.9825579963        8.8936755729       18.0450152091
 Si         6.4896594059       18.1183457179        2.4826685785
 Si         2.1626204885        3.0945334050        1.9316474321
 Si         1.6043582227       11.9477984098        0.4389362511
 Si        16.5458665448        1.0614582698        0.1419274933
 Si        18.6849940096       17.0476582397        2.5677078357
 Si        12.1017065331       14.5805122750       15.5907842884
 Si         3.1417663994        4.0451700728       13.2780677664
 Si         6.5731542436       10.0353959911       -0.4560387089
 Si         1.6812740208        3.4771286432        5.7767173085
 Si        12.2095720696        1.9532319988        2.5075620904
 Si        19.0285303114       19.8146739176        4.1641715090
 Si         3.8942357469       13.2119001362       18.2829384219
 Se         5.2808411298        9.4809176950       13.0646056711
 Se         7.7156638391        7.3730688569        6.6456973096
 Se         5.2998079989        3.9046705671        8.3653552197
 Se         8.1349240695        6.3140179545       11.6347816709
 Se        10.2719372264        4.1204896978        8.8064904343
 Se        13.7196378098        5.2051529670        9.8502545261
 Se         4.7442098313       12.9542135365        9.4529875631
 Se         7.0604168723       11.2830228523        6.1129287884
 Se         5.6134187596        8.3941248072        9.2273855582
 Se         9.5850783749       10.5618299620       12.5618457409
 Se        11.1262305195        9.9391859839        4.6660977026
 Se        11.4607284164        8.4605728475        9.3077917536
 Se        12.2605084781        6.6941259441       13.3692750626
 Se        10.3358868491        7.6427197710       16.7236072260
 Se        13.2754317538        6.3142149688        5.8144196120
 Se        15.9476673460        8.3221751853       11.5279991837
 Se         9.9183809662       14.7306633410        3.6302813317
 Se         6.8273542622       15.8436216845        7.4411321073
 Se         9.1549471467       14.7240143246       11.3267634617
 Se        11.2080575490       11.3708252474        0.4688872298
 Se        10.2035634138       12.3595166059        8.1666982564
 Se        13.2110826564       12.0487753287       11.3422329973
 Se         7.9190639965       12.4387610617       15.5745087574
 Se        14.9335919216        9.5424350741        2.7863506148
 Se        14.3678678618       10.5731914607        7.4326820070
 Se        17.2109517917       13.3338342606       10.3679755934
 Se        12.8221080640       10.6355018745       15.9951327336
 Se        17.4853915394        7.8620543880        7.5165117845
 Se        10.3040285662       17.4246577391        8.0860453953
 Se        13.5046905075       16.1362950942       11.6995937903
 Se        14.1205978354       13.6658543318        3.7285233734
 Se        13.5736563383       14.8385265401        7.9667072415
 Se        17.5048104040       12.3315106030        4.6136830305
 Cd         6.1730254577        5.3259986076        6.1878304167
 Cd         9.3314499862        6.8059429000        9.0037491469
 Cd         3.6602440705        8.2747444042       11.2695342744
 Cd         8.1421169209        6.2275937677       16.3983323422
 Cd        12.5108329561        4.3488725584        7.4545662041
 Cd         7.7243922381        3.3979659973        8.7955041436
 Cd         5.0261147276       10.6620600311        7.9868391300
 Cd         6.2894375453       13.3713588655        7.3747222050
 Cd         6.8916714012        8.6183257849       11.4373655405
 Cd         9.9671386572        9.3514498601       18.7301769595
 Cd         9.1717428964        8.0461290585        4.3890848567
 Cd        12.3176655496        8.6315080216        6.6999152206
 Cd        10.0622958331        7.8512816029       12.7908583079
 Cd        13.6824468106        8.2610906520       15.1138768559
 Cd        15.3794655629        6.1502022720        7.9480655795
 Cd        13.5125444835        7.5903605908       11.0656171555
 Cd         9.2343567756       15.0352583312        8.4874519314
 Cd         8.7833492769       13.9642147442       13.8216814361
 Cd         6.7328839550       16.7698036654       15.2562083345
 Cd         8.2069924184       15.1425793874        1.7189485851
 Cd        12.8112275849       12.3080944707        8.5392720660
 Cd        10.8184233167       10.8568955546       10.3050835980
 Cd        11.7549832408       11.6100989646       13.9434444477
 Cd        12.3068770434        9.5955999805        2.1154028441
 Cd        14.9973941662       11.2118896207        4.9075140282
 Cd        14.9770905199       14.4039160057       10.0964716026
 Cd        16.3915511296       10.9672786052       11.6851464299
 Cd        18.1361518092        7.4934397607       10.0598984809
 Cd        12.2840160820       15.1406534580        2.6103941455
 Cd        12.3025317629       16.7833005195        9.4328099406
 Cd        14.9944897356       14.7843393665        5.7995739889
 Cd        11.7610444294       14.2962571146       12.0010622407
 Cd        19.4347366189       11.0970505497        5.7690359922
