417
 i =     5500, time =    11000.000, E =     -8967.2308038056
  O        14.1773293591        2.2493680965        8.6989212923
  O        15.6904854148        1.1662425080        5.1902079232
  O         9.1157981949       17.6517299387       16.9890213151
  O         5.6932118636       11.2228845178        0.8361745201
  O         2.5097470603        6.3347901331       10.4765802698
  O         1.6779235276        4.8442611292       12.5574983459
  O        16.3453984337        6.4095444864        2.3434904490
  O         4.6078136808       15.9155596990       14.4675364951
  O        14.9977614440       19.2274152926       16.0995453355
  O        12.7268773718        2.8050970363        6.0786159356
  O        11.1858367976        2.4241429355        0.9949400039
  O        12.9754775641       19.7214626444        4.9419124462
  O        11.3903362528        7.3424622872        1.3698355626
  O         4.7342773378       19.2263902869       -0.7952019240
  O         6.5041295934        4.0897071998        4.6789672909
  O         2.1990585408        2.0981270611        5.7655449124
  O        18.7778794888       15.9269820985        3.2634740681
  O        14.2677667351       19.6136207782       12.6712322143
  O        17.7452630722       21.0904208166        3.2693218468
  O         6.3324743542        5.3230105722       15.5924324847
  O         1.7744607053       18.1592912356       10.9625960974
  O        16.4232145476        2.9960068240        9.7270222134
  O        19.3470030810       11.8363167453        7.8349209924
  O         2.4868796266        3.2909744650        0.5821003583
  O         5.0924840694        9.8906103005       18.0202114794
  O        16.9536868825       13.5421468691        1.1671385190
  O         2.9767027504       10.5973442322        6.5745448989
  O        18.2612953929       20.1577591864        5.7122917540
  O         0.2289027643        8.6546286014       12.7025326140
  O        17.8011212071       12.8511578110       18.1174910111
  O        15.8062425572       16.7347749755       16.3380650718
  O         4.1452613226        6.4296823914        4.7564042200
  O        12.6820656515       19.8010505395        7.6216100290
  O         3.8722621670       19.7243194748       11.6559523093
  O         6.2966278921        8.7737975364        0.7345231869
  O         3.3570878068       19.5332880232        4.5458254448
  O         0.4752617059       11.4583804849       12.5718719897
  O         9.2662031026       19.0025943479        4.5773446536
  O        12.1827113824       19.7913471187        2.4458209621
  O        18.3154745466        6.8190303586       14.3124838396
  O         9.7495767429        6.3591421437        3.3192299189
  O         2.3668863001        7.2780048847        6.5534495526
  O         9.3434976008       19.9090705065        0.3977751429
  O         2.3988737995       19.4525116979        0.3628406751
  O         0.5356502468       14.8981610473        6.3031351504
  O        19.2335239098        8.3146495064       -0.4819075514
  O         2.8172935816        9.4741855122       16.8120211625
  O         2.4327763374        4.7318335412        5.5010399915
  O         2.0363372115       15.8232461791       13.8609621427
  O         3.1235064654       19.8172215471       16.4086895621
  O         1.6154379371       10.8590560471       15.0060758558
  O        16.9004275868        4.5547018719       16.2814931138
  O        18.3537347796        5.8943665708       -0.6311472884
  O         4.5668020746       13.6080080548       19.5164348358
  O         2.8313332704       17.0910972105       16.9037496852
  O         7.3854599040        4.8928677866       18.5588416206
  O        16.8474172475       17.4248000297        9.0850384716
  O         6.4827607863        7.1488408764        2.8406729488
  O        18.5727968060       17.4144513989        1.1310915053
  O         7.3116483383       18.6687318681       18.6296650291
  O        16.2438785871       11.4385096268       13.7621221551
  O        18.7168201347       17.1497274015        7.1799352453
  O        19.4762127743        3.5795523617        4.9328179626
  O        13.0275411483        2.6042744656       12.0881395023
  O         4.6664633745       18.8564943257        1.7988412293
  O         6.9114438099       16.2943466589       17.4783077618
  O         3.0257165082       18.1509070789       14.4280417715
  O         7.6799317850       10.3876577241       18.4293773199
  O        13.5111226616       15.3578558724       15.7262652380
  O         5.8891350730        2.0325020780       11.6069675265
  O        11.0975485420       16.2483502872       15.9469332569
  O         9.2986916057        3.1312417921       -0.6535701288
  O        15.3198416000       11.6792948173       18.5616674192
  O        18.6294752117        5.9865530277        3.5202918655
  O         9.6416161672        5.3899184938        0.7672083300
  O        19.5868680340       20.6390122600       13.5084427579
  O        18.0635299019       15.3510266170       18.8188298848
  O         5.4526002030        1.7009037904        5.4237949858
  O        13.5140211470        1.6501416699       17.3240870996
  O        15.9141927892       19.0810858641        0.7073499048
  O         7.5584840752        9.6367273595        2.9981277860
  O         5.9300831546       18.8443678862        4.1367634627
  O        16.3107083723        4.9553932288        4.4875397340
  O        18.6554907571       12.0430863960       14.9095434802
  O        11.6830393599       13.8759371885       17.1801464926
  O         4.3452505995       12.9668075656       16.9428082173
  O        19.7765903315        2.3857872093        1.6419616738
  O        12.8470610549       17.3380459465       -1.0002877229
  O         1.4562983186        4.0337250102       10.0727871528
  O        19.8874747831       10.7759957572        0.5272512950
  O         6.7925508928       18.8267875251       14.5895133697
  O         1.4365304302       13.3421885055       14.1729178352
  O         3.9248041938        4.8973938867       18.4067071109
  O         0.7197901148        8.4280078241       15.3977138558
  O         6.1813459159       16.7551215063        2.6241030248
  O        14.1838727974        5.6679947456       19.3946186605
  O         2.5967334260        4.0130137525       14.7914330467
  O        17.8678091215        3.0782221424       14.3009497576
  O        19.5308906442       14.9680606333        8.9662580716
  O         4.3182172492       17.9092091577        9.7358252592
  O         0.8462801347       18.5681050409       15.8127234960
  O        17.4887350814       10.3025348068       18.7078783002
  O        15.8173154422       14.2661646107       15.7761697592
  O         5.2159352551        3.4205317810        0.8508842084
  O        18.5188476649       17.8315490738       17.8200686704
  O        17.6516796440       18.6856148332       15.6550196687
  O         1.0974116500       16.5617041109       -0.4350157061
  O         9.7622805643        1.4343944937       14.4137734033
  O         3.8477052568       17.0743283629       12.1666169933
  O        17.8359887690        9.4767215976       14.5394487135
  O        19.6495374144       10.3165276167       17.2424696595
  O        14.8939932218       19.1909208760        9.3473277789
  O        18.2645813367        9.9552138139       10.9019410461
  O         7.2701189937        2.1647210098       14.6760845379
  O        15.7192523412       17.8939281537       14.0640449460
  O         3.6506833578        6.3083060427        1.0503983550
  O         3.3159824124        2.8178210550       12.5583176310
  O         7.5227717062        1.3394771792        9.5349274856
  O         2.8069699893       14.8363241167       18.0011145520
  O         5.6584515935       20.6042389998       16.4784298929
  O        14.6842537234       16.7398321086        0.9300589788
  O        16.5858967278       15.7294133555        7.0371742693
  O        10.2685052940        1.9564249406        3.6076748825
  O         1.8374903546       16.7376248349        7.9244701596
  O         3.5546764870        9.7514149131        3.9811034063
  O         2.5376415942       14.5287486098        2.9883117118
  O        12.7733657901       15.1361354411        0.5511574331
  O         1.6081533982        6.4166565139       18.5331433786
  O        12.1644894264       17.4225327893        3.7752888635
  O         3.1200170802        9.3994913313        0.2118242632
  O         4.4544124913        5.1626920812       12.9733578804
  O         1.9135360965        1.5550687533        9.1356990240
  O        15.5365008243        4.3216634092       13.8785402522
  O         6.9844369880        1.6436362113        0.4018777091
  O         8.9151207318       16.6384572574       -0.0177140660
  O         4.6833077065       12.7777564846        2.5611189320
  O        16.5208043891       18.3555584546        6.5794324090
  O         4.8408916489       18.8907649794        6.6584389055
  O        15.6956913218        3.9383511284        7.3522532517
  O        12.0377872058       19.9782612052       15.4859707307
  O         7.3828720696       18.9597650118        1.9018894243
  O        18.8609429839       15.1455909239       13.4520189912
  O        16.5007669624        1.3992154401        7.6604957666
  O        18.1859675430        2.5175215846       11.7031019677
  O         1.5456320781        4.6077595685        2.5665125315
  O         2.1084479159       12.1972037838        1.9211491650
  O         1.5567479209        9.8853745340       10.7427815546
  O         1.6723283624        6.8699249515        3.9741748218
  O        10.9549701884        1.2375655419       17.8910210469
  O         4.8477191487        1.4358494165       14.0667647965
  O         7.7303399206        3.9038571648        1.5807454060
  O        11.3047127694       13.9788777660       14.5380069604
  O         6.9799581557       -0.5159330957       11.1691958881
  O        18.8408328489        2.4834190355        9.0474132018
  O         3.9262860509        7.3841431863       17.8620615255
  O         6.4415345313        2.1624192480        3.0418466449
  O        10.1465770577       18.3180334257       14.5561086921
  O         3.8971476339        2.3963323037       18.0712004124
  O        11.6945293148       19.7030067796       12.8589253798
  O         8.5591304846       16.2165748263       14.7823289841
  O         2.6045319851        2.3419132738        3.0953441145
  O         3.6560300849       17.0655852216        0.1043069007
  O        18.3756391939       18.6163687890        3.3514479293
  O         6.8971471771       13.5977772039        1.2352571606
  O        17.5671650703        4.0622621518        1.9957470757
  O        14.8789620512        2.1312173983        1.0681784815
  O         0.8431930122       19.9946726061        4.1042498091
  O        20.0000599469        6.8207877818        1.4755825130
  O         8.1266809471        2.0299830404        5.1751516707
  O         9.0291140605        3.7677977071       13.5266242572
  O        20.8998946513       14.5719705768       11.6022368071
  O        12.6487753517        3.0608054643        3.0482317473
  O        14.3884493962       18.7049647312        2.8030481400
  O         2.3044913658       12.4897682531       18.6681155924
  O        16.4478575904       17.0783639970        2.6451889656
  O        17.5493447532       19.8788241781       10.0127332852
  O        14.6382052336       15.2422119615       18.1393601575
  O         8.3226039853        1.5289359729       12.1777034072
  O        14.8591396657        7.5181139476       16.1394446884
  O        16.6857982832       11.1301591148       16.3150049700
  O        15.9889978362       20.9518383617       18.0784096813
  O         1.0519288297        3.6283870283        7.4977636250
  O        16.7900455045       20.1279134471       13.2223054765
  O        15.5253138779        2.3504852122       15.6143237666
  O        10.5310789927        1.3480672880        6.1953537132
  O        11.8447020720        3.2273328092       15.9451430092
  O        16.1327825782       18.1573883794       11.4420180730
  O        17.5831409947        1.6653010513        0.6423697996
  O         0.9953060553       10.4491847303        4.9010884923
  O        19.6230628214       13.3484721497        0.6119921603
  O         2.9815945461       12.3020579253        4.4781316351
  O         8.7237148498        7.8548499850        1.3250159746
  O        19.1776774310        5.8988084567       11.0424529509
  O        12.6710737723       20.0373714709       10.3227572543
  O        19.1443970180       20.5651641649       17.1098134016
 Na        19.4504630930       13.7846953854        3.0079367832
 Na        11.6677503955        4.6333982708        4.3509959201
 Na        14.6927307887        9.4229730995       17.5539677187
 Na         5.9322638033       16.6012789122       11.0876527183
 Na         4.3634884638        8.6700679306        5.9907924693
 Na        16.8132423268       14.1212257913       13.0476695912
 Na         1.6359892387        1.3453107295       11.5573540701
 Na        17.8144357626       13.7881400639        7.5933379708
 Na        17.6647680250       10.5276437504        8.7220100765
 Na         7.8214503611       17.5091569017        5.1951902378
 Na        10.3457136623        4.6377014927       15.1393928287
 Na         1.3969185056        9.6580851014        7.9288734559
 Na         5.8260502401        6.3779634353        0.1348646844
 Na        10.1221868548       18.1048300027        2.5629369763
 Na        12.9689131503       17.7514636777       16.1282326184
 Na         9.7033988348        0.8502814739        8.9212113433
 Na         7.7391219870        5.4787258961        3.6025090921
 Na        17.9382372333       14.7119714037       16.4350168759
 Na        13.3833526673        3.6366193142       14.2031131601
 Na         5.5076335116       10.6429691949        3.4241540204
 Na        16.0528917806       11.4756254314        1.6245897785
 Na         0.2346572107       12.8163827333       10.0422551930
 Na         6.6160721122       18.8302879066        8.6941839092
 Na        13.4456584668        3.7967996700        0.8192090992
 Na        18.8394584519       15.9139505308       10.8234231035
 Na         4.0149792221       17.0874379891        7.6065117452
 Na        15.8754653600        7.2353540349        4.8035418720
 Na         4.8245881338        6.8152685976       14.6400385812
 Na        12.1748641621        6.3506827986       18.7127960025
 Na        19.7844053910       19.8693374393        0.1600766649
 Na        12.9413787637       19.4848584566       19.2484167040
 Na        11.4462835286       17.0077372060        5.8502385815
 Na         2.4512435156        5.9656031084        8.3172623613
 Na         8.3430617116       10.2160608605        7.6862784691
 Na        10.1268309468       12.8705464071        5.2904474511
 Na         1.6932859932       13.0737949233        7.0631840253
 Na         3.3013373063       14.0570264002       15.2330657089
 Na         7.5375879358       12.3906819246       10.8238673462
 Na        16.4095825905        5.4477916012        0.2108331953
 Na        20.4585695026       18.7822329050        8.8063179340
 Na        20.6151772109        5.8725993590       15.3443989536
 Na         4.2249501167       15.6621931086        1.8688205203
 Na        10.7574366556       15.8444977187       -0.9474189318
 Na         2.4362992870       15.8356425534        9.9414545759
 Na         1.2356431327        2.2210796509       15.2782667485
 Na        15.1528718984        1.5421519578        3.1998825666
 Na        18.6974412957        5.0442119603       12.9954139285
 Na        13.2281830730       12.8535857973       18.9767350069
 Na         4.4227052631        4.9927877002        3.0476751693
 Na        14.6493306707        3.3101081172        5.1744197310
 Na        15.3797844186       14.7352345101        2.3733371934
 Na        15.8730759188        6.6988374785       14.1880647866
 Na        14.6813129010        5.4375309142       17.1789702896
 Na        19.7256543278        8.0814689154        5.3635997161
 Na         4.5631166746        3.9489027213       16.2888825982
 Na        19.9795523915       18.1260750107       13.5117606601
 Na         2.9635047285       11.7105627235       11.6829348195
 Na        17.4620104367        6.6981831511       16.7528724659
 Na         6.9809478024        4.6526839533       13.6046806343
 Na        17.8343598018        3.1489643042       17.7602354744
 Na         3.7277462656        1.4181502086        7.7645319873
 Na         7.5349851650        2.7348939021       17.1662855862
 Na        10.9494983390        3.6766786597       11.4437811020
 Na         4.7807532386        5.4392566045       10.8456414752
 Na         6.2715166599       14.2078056910       17.8800717147
 Na         8.2089440325       17.9832422981       12.9213960730
 Na         4.6880449847       10.9788146282       15.8195343240
 Na        10.0462804940       12.0462954904       17.1686821828
 Na        14.0538690968        6.6977229569        1.9551359548
 Na         7.7666499654        9.9508566305       15.8721809321
 Na         4.3426570448        7.8548700059        2.6804175269
 Na         1.6967772614        9.3665609227        1.9967144571
 Na        17.9878789715       15.2115654992        5.2418436424
 Na         8.5564599119       11.5537721185        2.2777522217
 Na        14.6515155846       12.2603175374       15.2775615179
 Na        15.1021069109        3.9962224103       11.6563416058
 Na         1.5507698225       16.1305309056        4.6697144913
 Na        17.5504833722        4.0410255637        5.9887845850
 Si        15.7374207243       18.9297829463       12.8149040470
 Si         8.0096352724       17.2634205673       18.1738678898
 Si        18.1410696829        1.8202842390       13.1803897026
 Si         9.9760263146        6.7102367595        1.8137309785
 Si        10.2022385684        1.8242903432       -0.1875196285
 Si         2.6419700108        6.3226002637        5.2684201465
 Si        19.5834145110        6.7659412743       -0.1016051049
 Si         7.2598444437        8.3176280652        2.0540250860
 Si         2.4568049279       18.3678781343       15.9627093822
 Si         3.2151904350        6.3330919102       -0.4227301436
 Si        18.9112120006       19.0734962395       16.7153071851
 Si        16.6429962025       19.9542074546        6.2928067846
 Si        16.7429416878       11.5795634142       17.8997999525
 Si        18.1627032871        2.5634687809        1.9292236439
 Si        19.8739598192       15.9301303118        7.6576996635
 Si        18.8908355129       16.7969005679       -0.3632117677
 Si         8.4886282417        4.4797234987        0.2063966516
 Si        18.9032442719        8.2879377862       14.1831526157
 Si         3.7335628641       18.7264267882        0.4109160808
 Si        14.9066772521       15.2769921757       16.5236757708
 Si        15.4020009088       17.9275925529        1.7475538398
 Si        17.3609386490       11.0468573132       14.8062112599
 Si         3.4025932514       16.6589440623       13.6697950603
 Si        20.1218994524        5.9982826097        2.8734285887
 Si        15.6725325111        2.6807626573        8.3012551330
 Si         6.5583956773        2.7597200610        1.5185560361
 Si         1.2861470535        5.3323217186       11.0515766285
 Si        12.2573698421        1.2726513064        6.1700272850
 Si        17.7786266152        2.1454325566       10.1288776939
 Si        19.0702339968        9.9668045123       18.7721763135
 Si         9.5048101261        1.1345024155        4.8823905090
 Si        13.6950998602       16.1953172425       -0.2264173141
 Si         1.3626116624        9.7768859846       16.1813780417
 Si         7.1302964876        1.0984702704       11.0862207712
 Si        16.3353031267       18.7015105975        9.8694361982
 Si        19.6387628810        9.9903026819       11.7031362838
 Si        13.6258064892       20.1501535764        8.9444353450
 Si         2.6169249657       10.6660846875        5.0067373411
 Si         3.8829122954        3.5168943129       -0.1429367203
 Si        16.1016954844       18.0864795462       15.6294434987
 Si         5.5355202316       12.7870952801        1.1432303831
 Si        14.9891166781       20.7268667626       16.7554183700
 Si         4.4347599133        1.6532440330       12.3886276175
 Si         2.6367025317       16.4062313987       18.3656381632
 Si         2.2672101615        1.2914817102        4.3405388602
 Si        11.9873031661        1.8594319866       16.6962707675
 Si         9.7007318354       17.0064287968       15.5601194625
 Si        17.1659964189       17.1734093479        7.4513791282
 Si        18.1038471700       13.8012668319        0.0837593486
 Si         8.5770082157        2.2613121553       13.6386030992
 Si        17.1175369638        5.2956483214        3.1148209324
 Si         6.1585735517       20.2947520341       14.8308186447
 Si        10.9330439320       19.7190482555       14.3001287064
 Si         6.6489399904        2.5427574820        4.6558972786
 Si         3.3951896905       18.2493283651       11.0336388277
 Si         7.7615949982       19.6037699850        0.4500102886
 Si        12.9470476323       20.3833201512       11.9359966941
 Si         4.9618457140       19.5306074263        5.2297861682
 Si         0.6695705253       11.8925706992       14.1872233986
 Si         0.9736274197       14.6970091648       13.1097122326
 Si         3.0432801320       13.0299045001        3.0278428453
 Si        12.9130541651       18.8122819679        3.6276544497
 Si        16.4418592851        3.6461586838       14.9943447419
 Si         4.3495494757       20.2929920544       17.4527806215
 Si         1.0626838409        2.8876429583        8.9631664669
 Si         3.6735495249        9.0554002349       18.1887649188
 Si         5.9790031592       18.3222546344        2.5820435053
 Si         1.7061956509        3.1633450973        2.0186561751
 Si         1.3385450242       12.1865483116        0.5136499207
 Si        15.9299950187        1.3434312409        0.3161598970
 Si        18.0994260431       17.1661728445        2.6943821429
 Si        11.9146452538       14.7199749443       15.8481407809
 Si         3.1533355202        4.2402614676       13.2982097327
 Si         6.2840391344       10.1340817200       -0.2227908527
 Si         1.3250419707        3.5423253919        5.8445217732
 Si        11.6288368869        2.0040173541        2.5914189204
 Si        18.6281903193       19.9891265624        4.1229000796
 Si         3.5685116152       13.3969747654       18.2264600394
 Se         4.6827503101        9.3069120098       13.3539339116
 Se         7.3561631141        7.5971656091        6.5276781332
 Se         5.0180911369        4.0628020501        8.3333290430
 Se         7.9029712794        6.6883531978       11.3018140047
 Se         9.9475177544        4.3633011293        8.9370985736
 Se        13.5261768835        5.3549134497        9.8387865816
 Se         4.6460163052       13.3193988381        9.6635345325
 Se         6.5241404537       11.6525809949        6.0024207729
 Se         5.0057504762        8.6946406708        9.2407385057
 Se         8.9110515104       10.4888268893       12.4895371503
 Se        10.7843572531       10.1394478621        4.8712149045
 Se        11.0518097538        8.8067218584        9.0742470014
 Se        11.7768405226        6.7651970680       13.2652096849
 Se         9.9011100306        7.9505379800       16.6908683686
 Se        13.2516833520        6.6321163532        5.9331748179
 Se        15.5749558733        8.1150193454       11.5923035298
 Se         9.4813588507       15.1825470674        3.4981786783
 Se         7.1160070362       16.3523186882        7.4703299528
 Se         8.9373796696       15.1309557791       11.5079191105
 Se        10.8964199623       11.1901631995        0.7902105616
 Se         9.7792841911       12.6200725737        8.1985418923
 Se        12.4512514258       12.2904510707       11.6121996768
 Se         7.5970180745       12.5500250731       15.7724888081
 Se        14.7257790581        9.4175373110        2.9097819484
 Se        14.1876809423       10.8173240476        7.4787179078
 Se        16.5798151029       13.0386764049       10.2937571117
 Se        12.3400363640       10.4281537889       16.1426976491
 Se        17.5321364303        7.6342483746        7.7175730392
 Se        10.3066630304       17.5291469339        8.6158641510
 Se        13.3775147513       16.2248755386       12.2937393191
 Se        13.5093664885       13.8732897430        4.3939148045
 Se        13.1571334737       15.1111316659        8.3490113104
 Se        16.8709120746       12.5581719477        4.4967370129
 Cd         5.6765208748        5.5147505904        6.1250416755
 Cd         8.5233868548        6.8337854451        8.7169524055
 Cd         3.2071147358        8.3048077472       11.1129879603
 Cd         7.8318891246        6.3634799272       16.4882245249
 Cd        12.3376279908        4.6854425421        7.4594917934
 Cd         7.5212107602        3.4981336703        8.8042413102
 Cd         4.5702353673       11.3803357020        7.8979814657
 Cd         6.1440799655       13.9734705496        7.1206851530
 Cd         6.4160141057        8.7274620284       11.5261738514
 Cd         9.8210045425        9.1594120388       18.8575137655
 Cd         8.8001258998        8.3884856477        4.5204235768
 Cd        12.2722043775        9.1161451972        6.7271634102
 Cd         9.7490723025        8.0261307465       12.6208896527
 Cd        13.0814771859        8.1588074264       15.1150574638
 Cd        15.1289167259        6.1589044043        7.7644944004
 Cd        13.0598647582        7.7574489400       10.7373965625
 Cd         9.1863271585       15.1803958740        8.6910218620
 Cd         8.3567665825       13.9684301871       13.8806456356
 Cd         6.2748252841       16.7697111355       15.4392236692
 Cd         7.8458835625       15.5908721653        1.6126165340
 Cd        12.6216570085       12.5957552954        8.2392921774
 Cd        10.4901582641       11.0558664634       10.3768682036
 Cd        11.3432709960       11.5942120827       13.9419915288
 Cd        12.1065645739        9.4155461075        2.2861507846
 Cd        14.4682760362       11.2983524180        4.8499046953
 Cd        14.5804069518       14.6401969865       10.4297716437
 Cd        15.9556545930       10.7755925068       11.6584805734
 Cd        17.8603656847        7.5231289543       10.2298807161
 Cd        11.8864489114       15.2650517178        2.5464244928
 Cd        11.9348218323       17.3404559061       10.5479085883
 Cd        14.8501453935       14.6886103326        6.3477515882
 Cd        11.3465524278       14.5066197462       12.2290127337
 Cd        18.6257079154       11.4135841628        5.8375867798
