     479
 i =    10000, time =    20000.000, E =     -9097.8141249708
  O        13.8546648392       11.6049625226       18.8451911022
  O        15.6001389604       17.1505161241       16.2722400578
  O        17.5142136043        6.7058056900       18.2984808094
  O        17.7513408591       15.2855076949        8.5455464840
  O         1.8268649158        8.8444665180        3.6151149087
  O        16.1498165939        1.5684456633        6.5895824340
  O        19.2178036913       15.7550320585       20.8679608426
  O         1.6035492111        1.6021336856        8.4579136076
  O        12.3023133801        6.0488311602        3.0945418416
  O        20.3217134664        3.0094864404        6.7851570672
  O         4.0036548191       19.8055340224        3.3917503407
  O         4.5172269144       18.2227501216       14.9838207279
  O        18.6860701296       13.9895487924        6.5567012371
  O        14.1299456585        1.3814642520        4.0953144498
  O         8.6888237743       16.1144198035       16.9409401500
  O        12.4349398444        4.0105229073       19.2063003591
  O        19.9454098779        8.1094800623        6.4390779635
  O         3.8314183670        9.3442249250       19.7615533974
  O        16.8457764803       16.7203287822       20.1487589122
  O         6.4897858358       10.7113349617        4.3151820069
  O        20.1614532043        6.9892350852       13.3393620766
  O         4.9813623651       17.7966597733       17.6127562690
  O         8.4866857708        2.9049848670        4.6678440501
  O        20.5975430241       13.3816422871       15.6137150339
  O         1.2612762513       13.4416875691       13.1789268856
  O        16.6008596525        1.0355508056        1.8500699215
  O         2.6360608331       12.0200007215        7.5093442963
  O         5.2404585916       10.6186750519        1.7003403649
  O         3.5479732991       14.8058635654        3.5482033621
  O        21.0307963446       11.0043311494       14.3791180376
  O        13.3005745886       15.9015049560        2.8386296588
  O         3.2881816727       13.2157473489       18.6455866358
  O        20.3355948652        3.7385448945        4.4843957741
  O         1.0101035069        6.5559222540        3.1127241908
  O        13.8379854669        2.4673545840        7.8420821396
  O        20.3136408618        6.4622012384       20.8205840648
  O         1.5323422595       11.7631032748       20.2842179948
  O        19.1787912218        5.0814644951        2.6518409715
  O        11.2588162580       14.6695370982       18.2675489053
  O         8.8552374930       19.2293312725       16.2132515127
  O         1.4820118569        8.3709886615       19.3194043044
  O        10.0994198292       18.0971084501       18.2991515887
  O         5.8002373312       14.3879267267       12.4569605178
  O         0.6259840530       15.8803103607       12.2764268078
  O        16.1398090316        3.9533736576        7.8251850900
  O         2.6484344330        6.1550959327       12.6835688455
  O        18.5043887521        9.5781481952       20.7874155153
  O        18.4990483037       13.1240636846       17.0105147679
  O         2.6107519067        3.9302663097        6.0086402482
  O         1.0126649986       13.3850951529        5.9156299354
  O        16.3480284247       15.5346369435       10.7654274436
  O         3.3806925209        1.5274703773       12.7737312356
  O         1.5128426584       19.3670348784        2.1287674869
  O         3.7917656453        6.9277853859        9.4876744953
  O        14.5394620297       19.0504702855        9.5192994040
  O         4.3291081157       12.6142777050       10.1739222953
  O         1.5840992389        7.1880061107        8.1343628409
  O        16.7677901006       14.6854524145        1.4162335790
  O        20.8547962195        5.0947656009       14.8887408038
  O         5.2090863510        0.1144878932       16.6728794603
  O         5.7770026228        2.3832596831        3.6760279804
  O        18.8939616295       16.2643194004       10.5332032803
  O        18.6683097736        0.2940306502       12.5398336315
  O         5.1866789533        8.0403066121        1.4158441160
  O        13.6527299781       13.8655399917       17.3570688794
  O         8.6511279698        2.3871733960       19.6555720567
  O        18.2308906020        5.2372222293       14.1571527169
  O         7.6215782716        4.4850448299       18.2239753476
  O         2.3750815399        6.9432010041        5.6130796977
  O         6.6320919520       15.4639954100       15.3998125738
  O        11.1694136067        0.5073976850        4.1899237607
  O        18.6763556423        2.4992454573        2.7139096485
  O        16.2657748420        8.9094710106        2.1388095957
  O        13.1225956508        5.2112828528       17.0115180835
  O        11.0038666630        8.2293830166        2.1159529064
  O        20.7543304835       13.2261833208       18.3343510301
  O        20.2888011724       18.4573374098       11.4503772684
  O        14.9637542747        0.9760982371       19.0068153912
  O         7.3914472466       18.4389778996        2.3826927549
  O         1.9998955651        2.8673462511       11.0519171401
  O         6.6318764233       14.1917782993       20.3775985373
  O         5.5371666336       16.4972049238       19.7753582780
  O         8.9449850647       13.4226219484       19.1780887461
  O        13.9282601694       19.0063091810       20.2551462594
  O        16.3302386274       -0.7134684958       11.4673982992
  O        11.5117435432        4.1042844411        1.5382006530
  O         1.6116885633       11.0179123989        5.2305593401
  O        15.5949737086       19.3441342691        5.4234512127
  O        10.4205110443       18.2304959518        5.4289979006
  O         6.5389759107       12.0485730766       18.9175774934
  O        19.5565314674       18.9801123091        8.6374219528
  O         1.1778578262        7.2600814898       10.7078530549
  O        14.3712131392        9.9313373068       20.6263909085
  O         5.6143171890       14.4095658838        5.1667545733
  O        14.7073432520        3.2756421545       17.8174074142
  O        12.0353381201        0.7036145439       21.6451347801
  O         4.0026393065       16.6229979452        9.6370934178
  O         3.0870167670       12.3921180268       14.9399828219
  O        19.9441435865       12.1176763768        2.1813938196
  O        18.7553582897        7.7525709167        2.4761293192
  O        16.7283756867        2.0134240997       11.6504227575
  O         6.1785525825       18.1343667668        9.5242622054
  O         9.6343196091        7.5750525586        4.5712860180
  O        13.0326265702       18.5668599654        4.7003098087
  O        17.7250374023       11.6509358793       19.2118035205
  O        10.4008071382       11.9639665345        2.4095583784
  O         5.0340510344        5.0576949255       19.3940520803
  O         3.7273556688       19.3299277891       10.2322306698
  O         7.9897699857       16.6923867795        4.3118302001
  O        20.4669791089        5.5169939009        6.3483882554
  O         9.8133693853        3.1807468930       17.3828108644
  O         2.0682445546       10.7680960919       18.0887469513
  O        10.9313248001        4.0920258674        4.0733123510
  O        17.8548418413       -0.4317341251        6.6467895775
  O         4.5360176899        2.5294957621       16.7825169610
  O        13.4089956400       18.4015239232       15.2997567798
  O         2.3151587687       11.2572596186        2.6120781833
  O         4.2901544494       14.8421517637        1.0759192198
  O        20.4890796744        4.9431280798       11.6861148136
  O         3.6497084048       12.7353669715        5.2009584292
  O         7.4141637522        0.7464873306       21.0657195992
  O        19.1743763900        9.6299054126       17.9969592834
  O        18.2135236565       16.5519569584        6.0953651445
  O        15.1811321765        7.6310279328       17.4190440854
  O        13.1061694639       16.3748264424       16.9649566590
  O         6.8087155749        6.9807461198       18.5483191495
  O        14.9453109354       13.7760664800        3.0085182791
  O         5.6804417287        8.2592350463        3.9655708547
  O         3.5750190376        6.7419839292        3.2990799631
  O         7.4734925582       17.5876948409       18.7472521160
  O         0.8800557185        2.6478927828       13.4571315751
  O         1.9252596510       17.1615915003       18.6405378180
  O         9.8914025739        4.6747826583       19.6497411955
  O         8.6964420282        4.6269181159        2.6341485966
  O         2.9355088068       15.3550446779       13.7449765309
  O        10.7945658716        0.5256130394       17.6432867879
  O         9.6423135031       -0.2932591920        1.8826074466
  O         5.4027638123       19.1873383024       19.8542086392
  O        16.5351342671       17.5588180533       13.8331291043
  O        18.9029949078        1.4560906191        8.3749654325
  O         6.5128320638       15.9509399087        2.2468786229
  O        19.6753703648       15.0113113654        4.3792643092
  O         3.9161699631       10.0963463535        4.2186939436
  O        13.5216272290        3.8573892942        3.3472779930
  O        16.9738240684       20.2897518261        9.0634459700
  O        15.9576506748       12.9809718873       17.6943854920
  O        12.6111194109       12.0222919725        0.9568952608
  O        16.7174975097        9.3804431049       18.6724200047
  O         9.3183776154       15.9111744579       19.6130038031
  O        20.3858239304       10.7132087045        8.2871959615
  O        17.6435741849       14.3338408410       19.1517800350
  O         3.0403577501        8.4391415830       17.1873987349
  O         2.9881288643        4.2846936356       17.8380691331
  O         0.8470079641       -0.4204842266       18.4223041413
  O         2.6513963149       16.6695698226        7.4368172402
  O        13.8986533517       16.1268344053        7.3186266907
  O         9.9571226860        2.2883060022        2.4968016840
  O         5.0996851750       -0.5087380100        5.8114944016
  O         1.7975366633       19.2263095476        7.0652967247
  O         2.0224696742        4.9971905719        9.5681677508
  O        12.2425317419       13.5093522837        3.1310196445
  O         5.0408815281       17.6025116187       11.8326538504
  O        20.2325951214        6.1294212859       18.3309817454
  O         7.1184343111        1.3725033553        5.9855962348
  O         2.0534431390        1.7288667076       17.4502890797
  O        20.4497520266       17.8433064704       16.6337070076
  O         2.7962565245       18.9417417194       16.8299635639
  O         2.7780161983        9.9530746693        9.0805018757
  O        18.2854358247       10.2560355372        3.2884249019
  O        19.0658825156       12.2136764450        4.6888232803
  O         7.9124441679        0.6418116824        3.5320506341
  O         8.5768782268       19.2799133859        9.7478001825
  O         7.3351379423        5.4349798066       20.6609476589
  O         8.6288088950       13.6837231533       15.8384737874
  O         4.6267466640        1.7233935773        7.1679756809
  O        14.4792348240       11.4616867941       16.2257406732
  O        16.5177675966       19.0807361866       19.0247027274
  O         2.6951512850       14.4587363600        8.8113477882
  O         8.0274750839       18.2222683892        7.3673190539
  O         5.2151068277       12.7601938700        3.0126154682
  O        13.7488946706        7.8210562617        1.9186242189
  O         0.9934692407        3.4382051069        1.9345856244
  O        16.8357853991       17.7850968316        9.4654365075
  O         8.4932231492        7.2474569251        2.1858490082
  O        17.2215411627        2.4175043883       18.1054435823
  O        10.8772106492       14.0611649794        0.7729999704
  O        16.3184541614        0.7240800459       13.8728399910
  O        11.9099905367        6.3848855630       20.5253460493
  O        19.1191536946       17.6406709480        3.7541251232
  O        10.5181273689        1.5244620219       15.2549696948
  O        15.4023405941        7.5026335506       20.0603700745
  O         6.1384556348        5.9003752458        2.7579791531
  O        15.3220224824       12.4417237294        0.7889650847
  O         2.2060562807       16.4520628774        1.7148127562
  O        16.1101848645       14.8970898789        6.3580553171
  O         1.6682272426       12.3455990883        9.9241528898
  O         5.5196151196        9.5006566180        6.4554471897
  O         5.4818156634       10.2729183631       17.2317697974
  O         2.5222539242        3.3025434191       15.3568468103
  O         6.5200320540        9.4474682232       19.7014744293
  O        19.9858133453        3.4167879312        9.4547491784
  O         6.5007317055        0.1934803462        8.1321385722
  O         3.0859455409       17.8360057282        5.0809317617
  O         1.9791899694       13.7861267350        1.7192419599
  O         1.7958256830        0.6186487103        4.4011436880
  O         2.6169675020        6.1586904320       19.5655608302
  O        14.1925929931       18.7395839291       17.7777030348
  O        19.7830092548       15.3298629848       17.1887339071
  O        15.1309472766       16.9520762662        5.1939843962
  O        11.9320990086       -0.1713962703        6.7045194979
  O        19.5240122827        1.9498454505       18.1762739101
  O         6.8734331130       14.2188705456       17.6778004722
  O        20.1183896806        2.8256604714       16.0353518544
  O         5.4145717077       17.6687487556        4.0794154429
  O        13.4870241651       15.6649406901       19.5837157514
  O         9.1440123771       10.4070776238       20.5296429762
  O         7.0093370856        1.9530249951       15.9154718474
  O        18.3504288394        4.4166474917       17.1538881400
  O         9.1182623089        9.7307513731        3.0361671801
  O        17.9366563674        1.7185545006       15.7698821321
  O         7.6715407794       11.8263079353        2.3012103088
  O        17.1651797308       19.3169847618       15.7821794046
  O        19.1996518757        6.7197125747       16.0179341970
  O         2.6366460554       14.3855525593       11.3033447325
  O         1.0256479016        0.5835419247       11.8671719672
  O         6.4191869043        1.6522798702       18.6415193222
  O        14.5449022067        3.6255583503        5.6110249633
  O        20.6562041328       19.1222481729       13.9962162221
  O         1.3302591542       16.7425322031        9.8185916872
  O        18.2280752158       16.9812743135       15.6738296866
  O         8.0983046880       10.2260742750       17.5876332229
  O        17.5274561988        0.7691769446        4.3358008001
  O        13.7314120160       14.5910586698        5.1617272294
  O         2.8103874342        1.5157569700        1.9716793949
  O        17.2362795393       12.4741157175        2.7373558553
  O        18.5393999156       17.4986836675       18.3198084721
  O         3.0230227324        3.6607286701       20.4621810587
  O        20.8836850922       17.0786947751        5.6635111928
  O        15.1350775560       18.3944137025        2.9595820015
  O        12.3735800579        2.5589437527       16.9510897132
  O         8.5029189867       -0.0363941683       18.7666314008
  O         1.1934497074        1.8301900220       19.9328005187
  O        18.5947769411       18.8028054222       20.7017580860
  O        16.2217801331        2.9600471364        3.7069974899
  O        15.4237652211        1.2120019308       16.3990068788
 Na        13.4188091105        0.7285693456       15.0679675204
 Na         8.0439409486       16.0743247777        6.4183522325
 Na        20.7772307494       10.5261408219       12.1139916591
 Na         4.5820409187        2.8671398268       14.1896115012
 Na        17.0456354297        2.7456567405        9.5020850378
 Na         8.3084682662       19.1751021218        5.3295206686
 Na        12.4138019754        1.9392514632        5.8264983746
 Na         1.4948230701       17.0399718643       14.5296938499
 Na        13.1832537142       11.6548233072       14.0657207032
 Na         4.3512251109        4.1062625865        4.3547837156
 Na        14.3798725973       17.9416223441       12.9923219671
 Na        18.1481440372        0.9477751483       20.2850103205
 Na        15.9621397840        5.6334219038       16.5667116507
 Na         7.1715562224       17.9110523511       15.8391112635
 Na         8.3230001636        3.8826595773       15.7059555968
 Na        13.2284873821       21.0642885738        9.4062230653
 Na        10.6541313298       16.4904068474        4.0073066627
 Na         3.9089439055       15.8205035758       18.1037683262
 Na        19.8465139388        8.7138080442        8.9385571689
 Na        19.3768096101       10.0636461764       15.9407650227
 Na         5.1421435828        8.0296580562       17.5616066445
 Na        17.4445752788       15.8726000922       12.8831129533
 Na        11.7706930941       19.5700603150       19.6275080823
 Na         4.0698991895        4.4248855865        7.9930738889
 Na         4.5904180504       12.5615819181       16.7381024453
 Na         8.1095402806        8.7235401766        5.9722067100
 Na         8.5141750005        8.2563519616       19.7128219823
 Na        14.3735354762       16.2757914760        9.5681320809
 Na        17.3567876368       18.5963634154        2.8284556701
 Na        19.0324814097       12.7315397478        8.4589131197
 Na        11.1398493618        6.3871506735        5.7699267186
 Na         5.2414551084       11.6119021537        7.6466940405
 Na         9.9966519106       11.0357396241       18.6300830182
 Na         7.7111568681       14.1136858115        3.6707283063
 Na         8.3370598512        0.6663599563       14.7506249727
 Na        19.4694600386       10.1778812073        6.1278371524
 Na         3.0136763720       18.3221368901       20.5809224390
 Na         4.6253926557       12.6118605255       20.6456560938
 Na        18.6515094712        3.1463702597       12.8848926485
 Na        15.1673815310       14.5595985108       15.8082421978
 Na         4.6241800746       15.4511495691        6.8961223272
 Na        19.5215895506       -0.1731795521       15.6418235003
 Na         5.2596747944        1.0408442087        1.8746447591
 Na        13.1529065695        7.1637622418       18.1882695648
 Na         2.7332523181       10.1305834269       15.3800104210
 Na         2.5680941377        6.3673960770       15.8259502568
 Na        14.0641836041       18.6054747794        7.4389253973
 Na         3.6082217857        8.6009622680        7.5078621417
 Na        21.1164001546       15.1543786326       -0.3432200084
 Na        18.0973031115        4.8357132006        6.7791252257
 Na        19.8164399844       -0.3062138805        4.6083831972
 Na         7.6925009826       14.0770028358       13.6127306256
 Na        11.2301696403       17.6129028775       15.0827319731
 Na         5.0452981962        1.0317229664       10.0572432335
 Na         4.3657403349       12.9017506603       13.0139308544
 Na         3.6008036440       19.3780251304       12.8473013877
 Si        15.0998744791        2.9821115574        7.0536489527
 Si        10.8215412047        1.9535744029       16.7147317091
 Si        21.6522350321       12.4375804667       14.6079530816
 Si         2.4376518135        0.1824805982        3.0014821329
 Si         2.0347188167       17.8865251534        6.3385437329
 Si         2.5993396462       16.1351066262        8.9792731827
 Si        10.1764269319       14.5198307880       19.4576473911
 Si         8.9989263605        3.7051378648       18.7440415109
 Si        17.9001619499        9.1338999588        2.1143589030
 Si         1.1296082632        6.3327338671       12.1706706515
 Si         2.6211520728        9.2412114231       18.5294309941
 Si        19.9940421874       13.7492817300       17.0281153331
 Si        12.8886298273       15.1421181760       18.1935174203
 Si         2.9757895399        2.9105221528       16.9180295267
 Si        16.7391403889        0.3587133731        5.7301393057
 Si         8.9099255563       16.9529023237       18.3982656826
 Si        17.4591205640       13.0104903436       18.3235432398
 Si         0.8671359386        1.2013210025       18.4576997136
 Si         8.0817782504       -0.1616039972        2.1694712456
 Si         5.8173697660       17.9536637563       19.0595365853
 Si        14.5834478160        2.9108582610        4.1401749620
 Si         4.6249429567       13.7221654510        4.1959536263
 Si        18.6263534497        2.7665121627       17.0190384891
 Si         5.9303001841        1.5363164909       17.0006843006
 Si         2.2420905601        6.7311813005        9.5690196643
 Si         4.3986802005       18.8553458913       16.4209516211
 Si        19.8109750502        3.6444598784        2.9396016928
 Si        14.9507965056        8.5313816587        1.1305456227
 Si         6.8655720101       17.2002660640        3.3009802510
 Si        19.4905063026       16.6582401241        4.9543607716
 Si        11.5261781705       12.9168541866        1.7658507684
 Si        11.4834675270        4.8204284538       20.2064964187
 Si        15.6761983417        1.9990723479       17.9200477576
 Si         9.5938663820        8.1346695259        3.1187580137
 Si         5.1797042107        9.3578704443       20.6540963500
 Si         7.7533028242        5.7765018099        2.0935458243
 Si        12.2658519313        7.2018571941        1.8980268611
 Si        13.1395490762        3.8111478225       17.6719683332
 Si        16.7957808844       17.7956863602       15.3142152287
 Si        19.5091891699        6.0234194267       14.5089521943
 Si         7.7104418001       14.9171722493       16.4009106304
 Si         1.3761115706       12.1620173802        1.6765196970
 Si        19.6992611481       13.6628982304        5.2362644506
 Si         7.1202239895        1.9787095576        4.4386446055
 Si        17.3879501973       16.2504904021        9.8318175896
 Si         1.0464121995        4.0395410012       10.4352501947
 Si        16.6745417944        0.7131619781       15.5128828112
 Si         4.3795854645       18.7529720690        4.6565001280
 Si         5.3851878690        9.6060960860        4.8457156354
 Si        18.6499508608       11.8066310058        3.1228485219
 Si        10.7707365616        0.8403650807        2.5090057588
 Si         1.9862195077       12.2703277251       18.8090465914
 Si         2.9357149211       15.0444021397        2.0623059173
 Si         1.5358989022       18.3142990389       17.6165941299
 Si         1.7536714153       11.1445141716        8.6482729527
 Si        16.1034618560       19.1687717477        9.9057681437
 Si         4.6570276993       18.0156330044       10.3595077525
 Si         1.8906911632        1.8932686268       12.3644665327
 Si         6.6601239500       10.4465917247       18.2576647853
 Si        17.6643727516       18.0888069064       19.6296406349
 Si         0.9940519256        7.0291182490        6.6077005966
 Si        18.2371188124       10.0853161900       19.1291744914
 Si        16.0885143638       13.3573177471        1.9440575142
 Si        17.7016161743       15.2219401868        6.8788472142
 Si        14.4519926861       12.3878390958       17.5491769759
 Si         7.6836543972        1.1160298275       19.5127430447
 Si        11.6914445439       -0.8233292586        5.2770100427
 Si         6.2080815658       11.3987495335        2.8335409504
 Si         5.7543236196        0.7505571696        6.7971797509
 Si         9.1267181367       10.9243778002        1.9062574287
 Si         9.4527961688        3.4642348737        3.5003669833
 Si         7.2952219326       13.4392863166       18.9886098262
 Si        12.0598518087        4.4501009637        3.0103281527
 Si         6.6994664547        5.5503588698       19.1759483971
 Si        19.1388456787       16.8363515911       17.0257403929
 Si        16.9894507377        0.5694477775       12.3233037071
 Si         5.1448456460        7.2124648870        2.8601146586
 Si         1.9898040877        2.5225224587        1.0497136243
 Si         2.9132642362       13.4195157616       10.0731880044
 Si         3.4755164751        4.7511403257       19.3368456137
 Si        14.6883635090       15.5930053013        6.0591034401
 Si         2.2973771528       12.3762445939        5.9963511407
 Si        18.4282831876       -0.1341903920        8.1728142042
 Si        13.4737462674       14.4726394448        3.5143718086
 Si        14.0250375535       11.5122874543       20.4897767501
 Si        20.3007292387        2.2901999332        8.2611668605
 Si        19.7602809367        6.5271657133        2.2265621649
 Si        17.7463214629       15.3502270430       20.4257449306
 Si        17.1601274190        1.8155220822        3.0810715156
 Si         1.9131187097       14.7746129172       12.6719186639
 Si         2.1578336427        7.3088054023        3.9700114197
 Si        14.0028802558       17.6346483648       16.5890950692
 Si         1.0433917310        4.0678113269        5.8254161673
 Si         9.5402857668       -0.5727613386       17.5675666828
 Si        18.8535161838        6.0086633280       17.4867974247
 Si        20.1076737058       19.6345450252       12.6002890834
 Si         2.3451475327       10.3796460625        3.9562968302
 Si        20.3363161452       16.8337392907       11.0028333729
 Si         1.0966846215        6.8250650531       19.5353119220
 Si         5.8215417061       15.4534859738       20.9804475968
 Si        16.2376232906        7.8692943376       18.5777781242
 Si         0.9797950307        3.4712893310       14.8923380688
 Si         7.3681720520       18.9387115600        8.6766317408
 Si        14.9196784262       -0.6411264121       19.0493813239
 Si        14.6799914033       18.3490291518        4.4824713400
 Ca         2.5550046825        1.3167310201        6.4685559538
 Ca        14.3772214084       16.8323277161        1.1111385018
 Ca        10.2868799091       -1.6452022612        7.6669506496
 Ca        20.3478162563       17.4920073629        1.8329068378
 Ca         1.5146644051       19.6803377788        9.4709418166
 Ca        14.1952249060        0.2961265972        2.0043112268
 Ca         5.1975340044       16.0554109704       13.5152034690
 Se         6.1072683117        6.6831891190       14.8611445890
 Se         6.3369336897        5.6580369413        6.7454039431
 Se         6.6485537831        5.3092487593       11.0081222241
 Se         7.2383924566        1.2593900389       11.9726354313
 Se        10.0647101368        2.5524856502        8.0012041689
 Se        12.7741760882        1.0608879827       12.1350125197
 Se         3.6511242167        9.1659868122       12.7656865255
 Se        10.4674366583       10.4448512726        7.9195288040
 Se         6.7884934134        9.7553213847        9.6572130806
 Se         6.9104158062       11.5048957225       13.7708702732
 Se        13.6301403611        6.7563526518        6.6669920714
 Se        10.1080667410        6.4669014352        8.4776384799
 Se        10.1957808044        4.9854370087       14.0183612337
 Se         9.7734202717        8.5754431112       12.4767713538
 Se        13.3944769903        5.1148165369       10.8045987930
 Se        15.0404350776        4.6408307556       14.0625949097
 Se        10.2046685009       14.0578243181        6.2772060322
 Se         6.8440915531       13.9261056729        8.2442933808
 Se         8.6351428869       16.8616493832       13.0262102338
 Se        13.7219973239       11.2787764156        4.9228211525
 Se        10.1836613639       12.8741290823       11.1995137708
 Se        13.1656173288        8.3726076500       14.2975903329
 Se        11.1535954672       11.4833264337       16.0534211725
 Se        16.7280944338       10.1047353557        7.2501875989
 Se        13.6180961473        9.3881208421       10.5806071465
 Se        17.3289850442        8.9144559820       14.3711541381
 Se        10.3127382719        7.4771281675       17.3695310030
 Se        17.1163600513        6.6872763125       10.3011694751
 Se        11.6128042384       16.9566705099        9.7588598536
 Se        12.4450473999       15.3428472024       13.8142030059
 Se        13.7627692025       13.4239710489        9.1002039676
 Se        15.6009516600       13.2742246731       13.3667201728
 Se        17.8466894485       11.3342723354       10.9290589562
 Cd         6.6524435705        7.1917863515        9.1080918940
 Cd         8.2621311244        4.2459370836        7.4689340262
 Cd         4.5297882025        6.7830156312       11.7722604013
 Cd         8.0121214009        7.2310986989       16.4118210777
 Cd        14.7031640564        2.8663594167       12.3134304492
 Cd        11.0153807062        2.7312424811       13.1933028567
 Cd         4.5272615361       10.3309998873       10.5897073293
 Cd         8.5949421376       10.7647163624       11.5085909561
 Cd         6.0113711508        9.1947873590       14.0957603448
 Cd         8.4861331199       11.2583552772       15.8014856596
 Cd        11.3978720517       11.6714634549        5.9071539138
 Cd        12.1944347195        8.4880897221        8.2885103536
 Cd         8.9188201831        1.4855967842       10.0597362183
 Cd         8.4614013073        6.3298308874       12.4857236888
 Cd        15.1429291073        5.9562953068        8.7518959275
 Cd        11.6178174126        4.4247025717        9.1091771101
 Cd         9.2105067510       13.0003555915        8.6829703804
 Cd         6.2014789136       14.4269051086       10.5353497270
 Cd        10.7621997778       13.9735018970       15.1106523359
 Cd        14.8394379035       12.1150667490        7.1747733138
 Cd        12.1215049027       11.4615215607        9.9815075410
 Cd         7.6325594463       18.7152642605       11.6485386957
 Cd        10.8034825255        9.0036484663       15.0557014984
 Cd        14.6965511284        8.9644564927        5.9467595084
 Cd        16.2798713981        9.3980187009        9.7526169251
 Cd        12.1225341378        7.3464507401       11.4735794069
 Cd        12.8126858913        5.7904245896       14.7734888003
 Cd        16.5603204225        6.5916430471       12.8527105199
 Cd        11.8709709456       15.1942058230        7.8155556493
 Cd        10.6834848918       15.7153160077       11.8180639006
 Cd        15.8254050786       13.1813379635       10.8417884391
 Cd        15.1834972990        9.3852927387       15.8787504356
 Cd        16.9541348415       11.1780700520       13.3861351422
